                                   MODFLOW 6
                U.S. GEOLOGICAL SURVEY MODULAR HYDROLOGIC MODEL
                          GROUNDWATER FLOW MODEL (GWF)
                            VERSION 6.2.0 10/22/2020

  MODFLOW 6 compiled Nov 27 2020 16:47:26 with GFORTRAN compiler (ver. 8.1.0)

This software has been approved for release by the U.S. Geological 
Survey (USGS). Although the software has been subjected to rigorous 
review, the USGS reserves the right to update the software as needed 
pursuant to further analysis and review. No warranty, expressed or 
implied, is made by the USGS or the U.S. Government as to the 
functionality of the software and related material nor shall the 
fact of release constitute any such warranty. Furthermore, the 
software is released on condition that neither the USGS nor the U.S. 
Government shall be held liable for any damages resulting from its 
authorized or unauthorized use. Also refer to the USGS Water 
Resources Software User Rights Notice for complete use, copyright, 
and distribution information.


System command used to initiate simulation:


MODFLOW was compiled using uniform precision.

Real Variables
  KIND: 8
  TINY (smallest non-zero value):    2.225074-308
  HUGE (largest value):    1.797693+308
  PRECISION: 15
  BIT SIZE: 64

Integer Variables
  KIND: 4
  HUGE (largest value): 2147483647
  BIT SIZE: 32

Long Integer Variables
  KIND: 8
  HUGE (largest value): 9223372036854775807
  BIT SIZE: 64

Logical Variables
  KIND: 4
  BIT SIZE: 32


 OPENED DC_MF6.uzf
 FILE TYPE:UZF6                   UNIT 1005   STATUS:OLD                 
 FORMAT:FORMATTED              ACCESS:SEQUENTIAL          
 ACTION:READ                


 OPENED DC_MF6.ic
 FILE TYPE:IC6                    UNIT 1006   STATUS:OLD                 
 FORMAT:FORMATTED              ACCESS:SEQUENTIAL          
 ACTION:READ                


 OPENED DC_MF6.gnc
 FILE TYPE:GNC6                   UNIT 1007   STATUS:OLD                 
 FORMAT:FORMATTED              ACCESS:SEQUENTIAL          
 ACTION:READ                


 OPENED DC_MF6.disv
 FILE TYPE:DISV6                  UNIT 1008   STATUS:OLD                 
 FORMAT:FORMATTED              ACCESS:SEQUENTIAL          
 ACTION:READ                


 OPENED DC_MF6.sto
 FILE TYPE:STO6                   UNIT 1009   STATUS:OLD                 
 FORMAT:FORMATTED              ACCESS:SEQUENTIAL          
 ACTION:READ                


 OPENED DC_MF6.npf
 FILE TYPE:NPF6                   UNIT 1010   STATUS:OLD                 
 FORMAT:FORMATTED              ACCESS:SEQUENTIAL          
 ACTION:READ                


 OPENED DC_MF6.ghb
 FILE TYPE:GHB6                   UNIT 1011   STATUS:OLD                 
 FORMAT:FORMATTED              ACCESS:SEQUENTIAL          
 ACTION:READ                


 OPENED DC_MF6.chd
 FILE TYPE:CHD6                   UNIT 1012   STATUS:OLD                 
 FORMAT:FORMATTED              ACCESS:SEQUENTIAL          
 ACTION:READ                


 OPENED DC_MF6.drn
 FILE TYPE:DRN6                   UNIT 1013   STATUS:OLD                 
 FORMAT:FORMATTED              ACCESS:SEQUENTIAL          
 ACTION:READ                


 OPENED DC_MF6.oc
 FILE TYPE:OC6                    UNIT 1014   STATUS:OLD                 
 FORMAT:FORMATTED              ACCESS:SEQUENTIAL          
 ACTION:READ                


 OPENED DC_MF6.riv
 FILE TYPE:RIV6                   UNIT 1015   STATUS:OLD                 
 FORMAT:FORMATTED              ACCESS:SEQUENTIAL          
 ACTION:READ                


 OPENED DC_MF6.rch
 FILE TYPE:RCH6                   UNIT 1016   STATUS:OLD                 
 FORMAT:FORMATTED              ACCESS:SEQUENTIAL          
 ACTION:READ                

 NAMEFILE OPTIONS:
    FLOWS WILL BE SAVED TO BUDGET FILE SPECIFIED IN OUTPUT CONTROL
    NEWTON-RAPHSON method enabled for the model.

 DISV -- VERTEX GRID DISCRETIZATION PACKAGE, VERSION 1 : 12/23/2015 - INPUT READ FROM UNIT 1008



 PROCESSING DISCRETIZATION OPTIONS
    MODEL LENGTH UNIT IS METERS
    XORIGIN SPECIFIED AS     303000.000000000    
    YORIGIN SPECIFIED AS     3306000.00000000    
    ANGROT SPECIFIED AS     0.00000000000000    
 END OF DISCRETIZATION OPTIONS

 PROCESSING DISCRETIZATION DIMENSIONS
   NLAY = 7
   NCPL = 12347
   NVERT = 12916
 END OF DISCRETIZATION DIMENSIONS

 PROCESSING GRIDDATA
 END PROCESSING GRIDDATA

 PROCESSING VERTICES
   SUCCESSFULLY READ 12916 (X,Y) COORDINATES
   MINIMUM X COORDINATE =     0.00000000000000    
   MAXIMUM X COORDINATE =     31000.0000000000    
   MINIMUM Y COORDINATE =     1500.00000000000    
   MAXIMUM Y COORDINATE =     36000.0000000000    
 END PROCESSING VERTICES

 PROCESSING CELL2D
   SUCCESSFULLY READ 12347 CELL2D INFORMATION ENTRIES
   MINIMUM X CELL CENTER =     250.000000000000    
   MAXIMUM X CELL CENTER =     30500.0000000000    
   MINIMUM Y CELL CENTER =     1562.50000000000    
   MAXIMUM Y CELL CENTER =     35500.0000000000    
   MAXIMUM NUMBER OF CELL2D VERTICES IS 8 FOR CELL 6134
 END PROCESSING VERTICES

 THE SPECIFIED IDOMAIN RESULTS IN A REDUCED NUMBER OF CELLS.
 NUMBER OF USER NODES:   86429
 NUMBER OF NODES IN SOLUTION:   56126



 NPF -- NODE PROPERTY FLOW PACKAGE, VERSION 1, 3/30/2015 INPUT READ FROM UNIT 1010


 PROCESSING NPF OPTIONS
    CELL-BY-CELL FLOW INFORMATION WILL BE SAVED TO BINARY FILE WHENEVER ICBCFL IS NOT ZERO.
 END OF NPF OPTIONS
 PROCESSING GNC OPTIONS
 END OF GNC OPTIONS
 PROCESSING GNC DIMENSIONS
    NUMGNC =    5475
    NUMAPHAJ =       1
 END OF GNC DIMENSIONS
 PROCESSING GNCDATA
 END OF GNCDATA

 DRN   -- DRN PACKAGE, VERSION 8, 2/22/2014 INPUT READ FROM UNIT 1013

 PROCESSING DRN OPTIONS
    DRN BOUNDARIES HAVE NAMES IN LAST COLUMN.
    FLOWS WILL BE SAVED TO BUDGET FILE SPECIFIED IN OUTPUT CONTROL

 OPENED DC_MF6.drn.obs
 FILE TYPE:OBS   UNIT 1018   STATUS:OLD                 
 FORMAT:FORMATTED              ACCESS:SEQUENTIAL          
 ACTION:READ                

 END OF DRN OPTIONS

 PROCESSING DRN DIMENSIONS
    MAXBOUND =       5
 END OF DRN DIMENSIONS

 RIV   -- RIV PACKAGE, VERSION 8, 2/22/2014 INPUT READ FROM UNIT 1015

 PROCESSING RIV OPTIONS
    RIV BOUNDARIES HAVE NAMES IN LAST COLUMN.
    FLOWS WILL BE SAVED TO BUDGET FILE SPECIFIED IN OUTPUT CONTROL
    TIME-SERIES DATA WILL BE READ FROM FILE: r1_stage_1.ts
    TIME-SERIES DATA WILL BE READ FROM FILE: r1_stage_2.ts
    TIME-SERIES DATA WILL BE READ FROM FILE: r1_stage_3.ts
    TIME-SERIES DATA WILL BE READ FROM FILE: r1_stage_4.ts
    TIME-SERIES DATA WILL BE READ FROM FILE: r1_stage_5.ts
    TIME-SERIES DATA WILL BE READ FROM FILE: r1_stage_6.ts
    TIME-SERIES DATA WILL BE READ FROM FILE: r1_stage_7.ts
    TIME-SERIES DATA WILL BE READ FROM FILE: r1_stage_8.ts
    TIME-SERIES DATA WILL BE READ FROM FILE: r1_stage_9.ts
    TIME-SERIES DATA WILL BE READ FROM FILE: r1_stage_10.ts
    TIME-SERIES DATA WILL BE READ FROM FILE: r1_stage_11.ts
    TIME-SERIES DATA WILL BE READ FROM FILE: r1_stage_12.ts
    TIME-SERIES DATA WILL BE READ FROM FILE: r1_stage_13.ts
    TIME-SERIES DATA WILL BE READ FROM FILE: r1_stage_14.ts
    TIME-SERIES DATA WILL BE READ FROM FILE: r1_stage_15.ts
    TIME-SERIES DATA WILL BE READ FROM FILE: r1_stage_16.ts
    TIME-SERIES DATA WILL BE READ FROM FILE: r1_stage_17.ts
    TIME-SERIES DATA WILL BE READ FROM FILE: r1_stage_18.ts
    TIME-SERIES DATA WILL BE READ FROM FILE: r1_stage_19.ts
    TIME-SERIES DATA WILL BE READ FROM FILE: r1_stage_20.ts
    TIME-SERIES DATA WILL BE READ FROM FILE: r1_stage_21.ts
    TIME-SERIES DATA WILL BE READ FROM FILE: r1_stage_22.ts
    TIME-SERIES DATA WILL BE READ FROM FILE: r1_stage_23.ts
    TIME-SERIES DATA WILL BE READ FROM FILE: r1_stage_24.ts
    TIME-SERIES DATA WILL BE READ FROM FILE: r1_stage_25.ts
    TIME-SERIES DATA WILL BE READ FROM FILE: r1_stage_26.ts
    TIME-SERIES DATA WILL BE READ FROM FILE: r1_stage_27.ts
    TIME-SERIES DATA WILL BE READ FROM FILE: r1_stage_28.ts
    TIME-SERIES DATA WILL BE READ FROM FILE: r1_stage_29.ts
    TIME-SERIES DATA WILL BE READ FROM FILE: r1_stage_30.ts
    TIME-SERIES DATA WILL BE READ FROM FILE: r1_stage_31.ts
    TIME-SERIES DATA WILL BE READ FROM FILE: r1_stage_32.ts
    TIME-SERIES DATA WILL BE READ FROM FILE: r1_stage_33.ts
    TIME-SERIES DATA WILL BE READ FROM FILE: r1_stage_34.ts
    TIME-SERIES DATA WILL BE READ FROM FILE: r1_stage_35.ts
    TIME-SERIES DATA WILL BE READ FROM FILE: r1_stage_36.ts
    TIME-SERIES DATA WILL BE READ FROM FILE: r1_stage_37.ts
    TIME-SERIES DATA WILL BE READ FROM FILE: r1_stage_38.ts
    TIME-SERIES DATA WILL BE READ FROM FILE: r1_stage_39.ts
    TIME-SERIES DATA WILL BE READ FROM FILE: r1_stage_40.ts
    TIME-SERIES DATA WILL BE READ FROM FILE: r1_stage_41.ts
    TIME-SERIES DATA WILL BE READ FROM FILE: r1_stage_42.ts
    TIME-SERIES DATA WILL BE READ FROM FILE: r1_stage_43.ts
    TIME-SERIES DATA WILL BE READ FROM FILE: r1_stage_44.ts
    TIME-SERIES DATA WILL BE READ FROM FILE: r1_stage_45.ts
    TIME-SERIES DATA WILL BE READ FROM FILE: r1_stage_46.ts
    TIME-SERIES DATA WILL BE READ FROM FILE: r1_stage_47.ts
    TIME-SERIES DATA WILL BE READ FROM FILE: r1_stage_48.ts
    TIME-SERIES DATA WILL BE READ FROM FILE: r1_stage_49.ts
    TIME-SERIES DATA WILL BE READ FROM FILE: r1_stage_50.ts
    TIME-SERIES DATA WILL BE READ FROM FILE: r1_stage_51.ts
    TIME-SERIES DATA WILL BE READ FROM FILE: r1_stage_52.ts
    TIME-SERIES DATA WILL BE READ FROM FILE: r1_stage_53.ts
    TIME-SERIES DATA WILL BE READ FROM FILE: r1_stage_54.ts
    TIME-SERIES DATA WILL BE READ FROM FILE: r1_stage_55.ts
    TIME-SERIES DATA WILL BE READ FROM FILE: r1_stage_56.ts
    TIME-SERIES DATA WILL BE READ FROM FILE: r1_stage_57.ts
    TIME-SERIES DATA WILL BE READ FROM FILE: r1_stage_58.ts
    TIME-SERIES DATA WILL BE READ FROM FILE: r1_stage_59.ts
    TIME-SERIES DATA WILL BE READ FROM FILE: r1_stage_60.ts
    TIME-SERIES DATA WILL BE READ FROM FILE: r1_stage_61.ts
    TIME-SERIES DATA WILL BE READ FROM FILE: r1_stage_62.ts
    TIME-SERIES DATA WILL BE READ FROM FILE: r1_stage_63.ts
    TIME-SERIES DATA WILL BE READ FROM FILE: r1_stage_64.ts
    TIME-SERIES DATA WILL BE READ FROM FILE: r1_stage_65.ts
    TIME-SERIES DATA WILL BE READ FROM FILE: r1_stage_66.ts
    TIME-SERIES DATA WILL BE READ FROM FILE: r1_stage_67.ts
    TIME-SERIES DATA WILL BE READ FROM FILE: r1_stage_68.ts
    TIME-SERIES DATA WILL BE READ FROM FILE: r1_stage_69.ts
    TIME-SERIES DATA WILL BE READ FROM FILE: r1_stage_70.ts
    TIME-SERIES DATA WILL BE READ FROM FILE: r1_stage_71.ts
    TIME-SERIES DATA WILL BE READ FROM FILE: r1_stage_72.ts
    TIME-SERIES DATA WILL BE READ FROM FILE: r1_stage_73.ts
    TIME-SERIES DATA WILL BE READ FROM FILE: r1_stage_74.ts
    TIME-SERIES DATA WILL BE READ FROM FILE: r1_stage_75.ts
    TIME-SERIES DATA WILL BE READ FROM FILE: r1_stage_76.ts
    TIME-SERIES DATA WILL BE READ FROM FILE: r1_stage_77.ts
    TIME-SERIES DATA WILL BE READ FROM FILE: r1_stage_78.ts
    TIME-SERIES DATA WILL BE READ FROM FILE: r1_stage_79.ts
    TIME-SERIES DATA WILL BE READ FROM FILE: r1_stage_80.ts
    TIME-SERIES DATA WILL BE READ FROM FILE: r1_stage_81.ts
    TIME-SERIES DATA WILL BE READ FROM FILE: r1_stage_82.ts
    TIME-SERIES DATA WILL BE READ FROM FILE: r1_stage_83.ts
    TIME-SERIES DATA WILL BE READ FROM FILE: r1_stage_84.ts
    TIME-SERIES DATA WILL BE READ FROM FILE: r1_stage_85.ts
    TIME-SERIES DATA WILL BE READ FROM FILE: r1_stage_86.ts
    TIME-SERIES DATA WILL BE READ FROM FILE: r1_stage_87.ts
    TIME-SERIES DATA WILL BE READ FROM FILE: r1_stage_88.ts
    TIME-SERIES DATA WILL BE READ FROM FILE: r1_stage_89.ts
    TIME-SERIES DATA WILL BE READ FROM FILE: r1_stage_90.ts
    TIME-SERIES DATA WILL BE READ FROM FILE: r1_stage_91.ts
    TIME-SERIES DATA WILL BE READ FROM FILE: r1_stage_92.ts
    TIME-SERIES DATA WILL BE READ FROM FILE: r1_stage_93.ts
    TIME-SERIES DATA WILL BE READ FROM FILE: r1_stage_94.ts
    TIME-SERIES DATA WILL BE READ FROM FILE: r1_stage_95.ts
    TIME-SERIES DATA WILL BE READ FROM FILE: r1_stage_96.ts
    TIME-SERIES DATA WILL BE READ FROM FILE: r1_stage_97.ts
    TIME-SERIES DATA WILL BE READ FROM FILE: r1_stage_98.ts
    TIME-SERIES DATA WILL BE READ FROM FILE: r1_stage_99.ts
    TIME-SERIES DATA WILL BE READ FROM FILE: r1_stage_100.ts
    TIME-SERIES DATA WILL BE READ FROM FILE: r1_stage_101.ts
    TIME-SERIES DATA WILL BE READ FROM FILE: r1_stage_102.ts
    TIME-SERIES DATA WILL BE READ FROM FILE: r1_stage_103.ts
    TIME-SERIES DATA WILL BE READ FROM FILE: r2_stage_1.ts
    TIME-SERIES DATA WILL BE READ FROM FILE: r2_stage_2.ts
    TIME-SERIES DATA WILL BE READ FROM FILE: r2_stage_3.ts
    TIME-SERIES DATA WILL BE READ FROM FILE: r2_stage_4.ts
    TIME-SERIES DATA WILL BE READ FROM FILE: r2_stage_5.ts
    TIME-SERIES DATA WILL BE READ FROM FILE: r2_stage_6.ts
    TIME-SERIES DATA WILL BE READ FROM FILE: r2_stage_7.ts
    TIME-SERIES DATA WILL BE READ FROM FILE: r2_stage_8.ts
    TIME-SERIES DATA WILL BE READ FROM FILE: r2_stage_9.ts
    TIME-SERIES DATA WILL BE READ FROM FILE: r2_stage_10.ts
    TIME-SERIES DATA WILL BE READ FROM FILE: r2_stage_11.ts
    TIME-SERIES DATA WILL BE READ FROM FILE: r2_stage_12.ts
    TIME-SERIES DATA WILL BE READ FROM FILE: r2_stage_13.ts
    TIME-SERIES DATA WILL BE READ FROM FILE: r2_stage_14.ts
    TIME-SERIES DATA WILL BE READ FROM FILE: r2_stage_15.ts
    TIME-SERIES DATA WILL BE READ FROM FILE: r2_stage_16.ts
    TIME-SERIES DATA WILL BE READ FROM FILE: r2_stage_17.ts
    TIME-SERIES DATA WILL BE READ FROM FILE: r2_stage_18.ts
    TIME-SERIES DATA WILL BE READ FROM FILE: r2_stage_19.ts
    TIME-SERIES DATA WILL BE READ FROM FILE: r2_stage_20.ts
    TIME-SERIES DATA WILL BE READ FROM FILE: r2_stage_21.ts
    TIME-SERIES DATA WILL BE READ FROM FILE: r2_stage_22.ts
    TIME-SERIES DATA WILL BE READ FROM FILE: r2_stage_23.ts
    TIME-SERIES DATA WILL BE READ FROM FILE: r2_stage_24.ts
    TIME-SERIES DATA WILL BE READ FROM FILE: r2_stage_25.ts
    TIME-SERIES DATA WILL BE READ FROM FILE: r2_stage_26.ts
    TIME-SERIES DATA WILL BE READ FROM FILE: r2_stage_27.ts
    TIME-SERIES DATA WILL BE READ FROM FILE: r2_stage_28.ts
    TIME-SERIES DATA WILL BE READ FROM FILE: r2_stage_29.ts
    TIME-SERIES DATA WILL BE READ FROM FILE: r2_stage_30.ts
    TIME-SERIES DATA WILL BE READ FROM FILE: r2_stage_31.ts
    TIME-SERIES DATA WILL BE READ FROM FILE: r2_stage_32.ts
    TIME-SERIES DATA WILL BE READ FROM FILE: r2_stage_33.ts
    TIME-SERIES DATA WILL BE READ FROM FILE: r2_stage_34.ts
    TIME-SERIES DATA WILL BE READ FROM FILE: r2_stage_35.ts
    TIME-SERIES DATA WILL BE READ FROM FILE: r2_stage_36.ts
    TIME-SERIES DATA WILL BE READ FROM FILE: r2_stage_37.ts
    TIME-SERIES DATA WILL BE READ FROM FILE: r2_stage_38.ts
    TIME-SERIES DATA WILL BE READ FROM FILE: r2_stage_39.ts
    TIME-SERIES DATA WILL BE READ FROM FILE: r2_stage_40.ts
    TIME-SERIES DATA WILL BE READ FROM FILE: r2_stage_41.ts
    TIME-SERIES DATA WILL BE READ FROM FILE: r2_stage_42.ts
    TIME-SERIES DATA WILL BE READ FROM FILE: r2_stage_43.ts
    TIME-SERIES DATA WILL BE READ FROM FILE: r2_stage_44.ts
    TIME-SERIES DATA WILL BE READ FROM FILE: r2_stage_45.ts
    TIME-SERIES DATA WILL BE READ FROM FILE: r2_stage_46.ts
    TIME-SERIES DATA WILL BE READ FROM FILE: r2_stage_47.ts
    TIME-SERIES DATA WILL BE READ FROM FILE: r2_stage_48.ts
    TIME-SERIES DATA WILL BE READ FROM FILE: r2_stage_49.ts
    TIME-SERIES DATA WILL BE READ FROM FILE: r2_stage_50.ts
    TIME-SERIES DATA WILL BE READ FROM FILE: r2_stage_51.ts
    TIME-SERIES DATA WILL BE READ FROM FILE: r2_stage_52.ts
    TIME-SERIES DATA WILL BE READ FROM FILE: r2_stage_53.ts
    TIME-SERIES DATA WILL BE READ FROM FILE: r2_stage_54.ts
    TIME-SERIES DATA WILL BE READ FROM FILE: r2_stage_55.ts
    TIME-SERIES DATA WILL BE READ FROM FILE: r2_stage_56.ts
    TIME-SERIES DATA WILL BE READ FROM FILE: r2_stage_57.ts
    TIME-SERIES DATA WILL BE READ FROM FILE: r2_stage_58.ts
    TIME-SERIES DATA WILL BE READ FROM FILE: r2_stage_59.ts
    TIME-SERIES DATA WILL BE READ FROM FILE: r2_stage_60.ts
    TIME-SERIES DATA WILL BE READ FROM FILE: r2_stage_61.ts
    TIME-SERIES DATA WILL BE READ FROM FILE: r2_stage_62.ts
    TIME-SERIES DATA WILL BE READ FROM FILE: r2_stage_63.ts
    TIME-SERIES DATA WILL BE READ FROM FILE: r2_stage_64.ts
    TIME-SERIES DATA WILL BE READ FROM FILE: r2_stage_65.ts
    TIME-SERIES DATA WILL BE READ FROM FILE: r2_stage_66.ts
    TIME-SERIES DATA WILL BE READ FROM FILE: r2_stage_67.ts
    TIME-SERIES DATA WILL BE READ FROM FILE: r2_stage_68.ts
    TIME-SERIES DATA WILL BE READ FROM FILE: r2_stage_69.ts
    TIME-SERIES DATA WILL BE READ FROM FILE: r2_stage_70.ts
    TIME-SERIES DATA WILL BE READ FROM FILE: r2_stage_71.ts
    TIME-SERIES DATA WILL BE READ FROM FILE: r2_stage_72.ts
    TIME-SERIES DATA WILL BE READ FROM FILE: r2_stage_73.ts
    TIME-SERIES DATA WILL BE READ FROM FILE: r2_stage_74.ts
    TIME-SERIES DATA WILL BE READ FROM FILE: r2_stage_75.ts
    TIME-SERIES DATA WILL BE READ FROM FILE: r2_stage_76.ts
    TIME-SERIES DATA WILL BE READ FROM FILE: r2_stage_77.ts
    TIME-SERIES DATA WILL BE READ FROM FILE: r2_stage_78.ts
    TIME-SERIES DATA WILL BE READ FROM FILE: r2_stage_79.ts
    TIME-SERIES DATA WILL BE READ FROM FILE: r2_stage_80.ts
    TIME-SERIES DATA WILL BE READ FROM FILE: r2_stage_81.ts
    TIME-SERIES DATA WILL BE READ FROM FILE: r2_stage_82.ts
    TIME-SERIES DATA WILL BE READ FROM FILE: r2_stage_83.ts
    TIME-SERIES DATA WILL BE READ FROM FILE: r2_stage_84.ts
    TIME-SERIES DATA WILL BE READ FROM FILE: r2_stage_85.ts
    TIME-SERIES DATA WILL BE READ FROM FILE: r2_stage_86.ts
    TIME-SERIES DATA WILL BE READ FROM FILE: r2_stage_87.ts
    TIME-SERIES DATA WILL BE READ FROM FILE: r2_stage_88.ts
    TIME-SERIES DATA WILL BE READ FROM FILE: r2_stage_89.ts
    TIME-SERIES DATA WILL BE READ FROM FILE: r2_stage_90.ts
    TIME-SERIES DATA WILL BE READ FROM FILE: r2_stage_91.ts
    TIME-SERIES DATA WILL BE READ FROM FILE: r2_stage_92.ts
    TIME-SERIES DATA WILL BE READ FROM FILE: r2_stage_93.ts
    TIME-SERIES DATA WILL BE READ FROM FILE: r2_stage_94.ts
    TIME-SERIES DATA WILL BE READ FROM FILE: r2_stage_95.ts
    TIME-SERIES DATA WILL BE READ FROM FILE: r2_stage_96.ts
    TIME-SERIES DATA WILL BE READ FROM FILE: r2_stage_97.ts
    TIME-SERIES DATA WILL BE READ FROM FILE: r2_stage_98.ts
    TIME-SERIES DATA WILL BE READ FROM FILE: r2_stage_99.ts
    TIME-SERIES DATA WILL BE READ FROM FILE: r2_stage_100.ts
    TIME-SERIES DATA WILL BE READ FROM FILE: r2_stage_101.ts
    TIME-SERIES DATA WILL BE READ FROM FILE: r2_stage_102.ts
    TIME-SERIES DATA WILL BE READ FROM FILE: r2_stage_103.ts
    TIME-SERIES DATA WILL BE READ FROM FILE: r2_stage_104.ts
    TIME-SERIES DATA WILL BE READ FROM FILE: r2_stage_105.ts
    TIME-SERIES DATA WILL BE READ FROM FILE: r2_stage_106.ts
    TIME-SERIES DATA WILL BE READ FROM FILE: r2_stage_107.ts
    TIME-SERIES DATA WILL BE READ FROM FILE: r2_stage_108.ts
    TIME-SERIES DATA WILL BE READ FROM FILE: r2_stage_109.ts
    TIME-SERIES DATA WILL BE READ FROM FILE: r2_stage_110.ts
    TIME-SERIES DATA WILL BE READ FROM FILE: r2_stage_111.ts
    TIME-SERIES DATA WILL BE READ FROM FILE: r2_stage_112.ts
    TIME-SERIES DATA WILL BE READ FROM FILE: r2_stage_113.ts
    TIME-SERIES DATA WILL BE READ FROM FILE: r2_stage_114.ts
    TIME-SERIES DATA WILL BE READ FROM FILE: r2_stage_115.ts
    TIME-SERIES DATA WILL BE READ FROM FILE: r2_stage_116.ts
    TIME-SERIES DATA WILL BE READ FROM FILE: r2_stage_117.ts
    TIME-SERIES DATA WILL BE READ FROM FILE: r2_stage_118.ts
    TIME-SERIES DATA WILL BE READ FROM FILE: r2_stage_119.ts
    TIME-SERIES DATA WILL BE READ FROM FILE: r2_stage_120.ts
    TIME-SERIES DATA WILL BE READ FROM FILE: r2_stage_121.ts
    TIME-SERIES DATA WILL BE READ FROM FILE: r2_stage_122.ts
    TIME-SERIES DATA WILL BE READ FROM FILE: r2_stage_123.ts
    TIME-SERIES DATA WILL BE READ FROM FILE: r2_stage_124.ts
    TIME-SERIES DATA WILL BE READ FROM FILE: r2_stage_125.ts
    TIME-SERIES DATA WILL BE READ FROM FILE: r2_stage_126.ts
    TIME-SERIES DATA WILL BE READ FROM FILE: r2_stage_127.ts
    TIME-SERIES DATA WILL BE READ FROM FILE: r2_stage_128.ts
    TIME-SERIES DATA WILL BE READ FROM FILE: r2_stage_129.ts
    TIME-SERIES DATA WILL BE READ FROM FILE: r2_stage_130.ts
    TIME-SERIES DATA WILL BE READ FROM FILE: r2_stage_131.ts
    TIME-SERIES DATA WILL BE READ FROM FILE: r2_stage_132.ts
    TIME-SERIES DATA WILL BE READ FROM FILE: r2_stage_133.ts
    TIME-SERIES DATA WILL BE READ FROM FILE: r2_stage_134.ts
    TIME-SERIES DATA WILL BE READ FROM FILE: r2_stage_135.ts
    TIME-SERIES DATA WILL BE READ FROM FILE: r2_stage_136.ts
    TIME-SERIES DATA WILL BE READ FROM FILE: r2_stage_137.ts
    TIME-SERIES DATA WILL BE READ FROM FILE: r2_stage_138.ts
    TIME-SERIES DATA WILL BE READ FROM FILE: r2_stage_139.ts
    TIME-SERIES DATA WILL BE READ FROM FILE: r2_stage_140.ts
    TIME-SERIES DATA WILL BE READ FROM FILE: r2_stage_141.ts
    TIME-SERIES DATA WILL BE READ FROM FILE: r2_stage_142.ts
    TIME-SERIES DATA WILL BE READ FROM FILE: r2_stage_143.ts
    TIME-SERIES DATA WILL BE READ FROM FILE: r2_stage_144.ts
    TIME-SERIES DATA WILL BE READ FROM FILE: r2_stage_145.ts
    TIME-SERIES DATA WILL BE READ FROM FILE: r3_stage_1.ts
    TIME-SERIES DATA WILL BE READ FROM FILE: r3_stage_2.ts
    TIME-SERIES DATA WILL BE READ FROM FILE: r3_stage_3.ts
    TIME-SERIES DATA WILL BE READ FROM FILE: r3_stage_4.ts
    TIME-SERIES DATA WILL BE READ FROM FILE: r3_stage_5.ts
    TIME-SERIES DATA WILL BE READ FROM FILE: r3_stage_6.ts
    TIME-SERIES DATA WILL BE READ FROM FILE: r3_stage_7.ts
    TIME-SERIES DATA WILL BE READ FROM FILE: r3_stage_8.ts
    TIME-SERIES DATA WILL BE READ FROM FILE: r3_stage_9.ts
    TIME-SERIES DATA WILL BE READ FROM FILE: r3_stage_10.ts
    TIME-SERIES DATA WILL BE READ FROM FILE: r3_stage_11.ts
    TIME-SERIES DATA WILL BE READ FROM FILE: r3_stage_12.ts
    TIME-SERIES DATA WILL BE READ FROM FILE: r3_stage_13.ts
    TIME-SERIES DATA WILL BE READ FROM FILE: r3_stage_14.ts
    TIME-SERIES DATA WILL BE READ FROM FILE: r3_stage_15.ts
    TIME-SERIES DATA WILL BE READ FROM FILE: r3_stage_16.ts
    TIME-SERIES DATA WILL BE READ FROM FILE: r3_stage_17.ts
    TIME-SERIES DATA WILL BE READ FROM FILE: r3_stage_18.ts
    TIME-SERIES DATA WILL BE READ FROM FILE: r3_stage_19.ts
    TIME-SERIES DATA WILL BE READ FROM FILE: r3_stage_20.ts
    TIME-SERIES DATA WILL BE READ FROM FILE: r3_stage_21.ts
    TIME-SERIES DATA WILL BE READ FROM FILE: r3_stage_22.ts
    TIME-SERIES DATA WILL BE READ FROM FILE: r3_stage_23.ts
    TIME-SERIES DATA WILL BE READ FROM FILE: r3_stage_24.ts
    TIME-SERIES DATA WILL BE READ FROM FILE: r3_stage_25.ts
    TIME-SERIES DATA WILL BE READ FROM FILE: r3_stage_26.ts
    TIME-SERIES DATA WILL BE READ FROM FILE: r3_stage_27.ts
    TIME-SERIES DATA WILL BE READ FROM FILE: r3_stage_28.ts
    TIME-SERIES DATA WILL BE READ FROM FILE: r3_stage_29.ts
    TIME-SERIES DATA WILL BE READ FROM FILE: r3_stage_30.ts
    TIME-SERIES DATA WILL BE READ FROM FILE: r3_stage_31.ts
    TIME-SERIES DATA WILL BE READ FROM FILE: r3_stage_32.ts
    TIME-SERIES DATA WILL BE READ FROM FILE: r3_stage_33.ts
    TIME-SERIES DATA WILL BE READ FROM FILE: r3_stage_34.ts
    TIME-SERIES DATA WILL BE READ FROM FILE: r3_stage_35.ts
    TIME-SERIES DATA WILL BE READ FROM FILE: r3_stage_36.ts
    TIME-SERIES DATA WILL BE READ FROM FILE: r3_stage_37.ts
    TIME-SERIES DATA WILL BE READ FROM FILE: r3_stage_38.ts
    TIME-SERIES DATA WILL BE READ FROM FILE: r3_stage_39.ts
    TIME-SERIES DATA WILL BE READ FROM FILE: r3_stage_40.ts
    TIME-SERIES DATA WILL BE READ FROM FILE: r3_stage_41.ts
    TIME-SERIES DATA WILL BE READ FROM FILE: r3_stage_42.ts
    TIME-SERIES DATA WILL BE READ FROM FILE: r3_stage_43.ts
    TIME-SERIES DATA WILL BE READ FROM FILE: r3_stage_44.ts
    TIME-SERIES DATA WILL BE READ FROM FILE: r3_stage_45.ts
    TIME-SERIES DATA WILL BE READ FROM FILE: r3_stage_46.ts
    TIME-SERIES DATA WILL BE READ FROM FILE: r3_stage_47.ts
    TIME-SERIES DATA WILL BE READ FROM FILE: r3_stage_48.ts
    TIME-SERIES DATA WILL BE READ FROM FILE: r3_stage_49.ts
    TIME-SERIES DATA WILL BE READ FROM FILE: r3_stage_50.ts
    TIME-SERIES DATA WILL BE READ FROM FILE: r3_stage_51.ts
    TIME-SERIES DATA WILL BE READ FROM FILE: r3_stage_52.ts
    TIME-SERIES DATA WILL BE READ FROM FILE: r3_stage_53.ts
    TIME-SERIES DATA WILL BE READ FROM FILE: r3_stage_54.ts
    TIME-SERIES DATA WILL BE READ FROM FILE: r3_stage_55.ts
    TIME-SERIES DATA WILL BE READ FROM FILE: r3_stage_56.ts
    TIME-SERIES DATA WILL BE READ FROM FILE: r3_stage_57.ts
    TIME-SERIES DATA WILL BE READ FROM FILE: r3_stage_58.ts
    TIME-SERIES DATA WILL BE READ FROM FILE: r3_stage_59.ts
    TIME-SERIES DATA WILL BE READ FROM FILE: r3_stage_60.ts
    TIME-SERIES DATA WILL BE READ FROM FILE: r4_stage_1.ts
    TIME-SERIES DATA WILL BE READ FROM FILE: r4_stage_2.ts
    TIME-SERIES DATA WILL BE READ FROM FILE: r4_stage_3.ts
    TIME-SERIES DATA WILL BE READ FROM FILE: r4_stage_4.ts
    TIME-SERIES DATA WILL BE READ FROM FILE: r4_stage_5.ts
    TIME-SERIES DATA WILL BE READ FROM FILE: r4_stage_6.ts
    TIME-SERIES DATA WILL BE READ FROM FILE: r4_stage_7.ts
    TIME-SERIES DATA WILL BE READ FROM FILE: r4_stage_8.ts
    TIME-SERIES DATA WILL BE READ FROM FILE: r4_stage_9.ts
    TIME-SERIES DATA WILL BE READ FROM FILE: r4_stage_10.ts
    TIME-SERIES DATA WILL BE READ FROM FILE: r4_stage_11.ts
    TIME-SERIES DATA WILL BE READ FROM FILE: r4_stage_12.ts
    TIME-SERIES DATA WILL BE READ FROM FILE: r4_stage_13.ts
    TIME-SERIES DATA WILL BE READ FROM FILE: r4_stage_14.ts
    TIME-SERIES DATA WILL BE READ FROM FILE: r4_stage_15.ts
    TIME-SERIES DATA WILL BE READ FROM FILE: r4_stage_16.ts
    TIME-SERIES DATA WILL BE READ FROM FILE: r4_stage_17.ts
    TIME-SERIES DATA WILL BE READ FROM FILE: r4_stage_18.ts
    TIME-SERIES DATA WILL BE READ FROM FILE: r4_stage_19.ts
    TIME-SERIES DATA WILL BE READ FROM FILE: r4_stage_20.ts
    TIME-SERIES DATA WILL BE READ FROM FILE: r4_stage_21.ts
    TIME-SERIES DATA WILL BE READ FROM FILE: r4_stage_22.ts
    TIME-SERIES DATA WILL BE READ FROM FILE: r4_stage_23.ts
    TIME-SERIES DATA WILL BE READ FROM FILE: r4_stage_24.ts
    TIME-SERIES DATA WILL BE READ FROM FILE: r4_stage_25.ts
    TIME-SERIES DATA WILL BE READ FROM FILE: r4_stage_26.ts
    TIME-SERIES DATA WILL BE READ FROM FILE: r4_stage_27.ts
    TIME-SERIES DATA WILL BE READ FROM FILE: r4_stage_28.ts
    TIME-SERIES DATA WILL BE READ FROM FILE: r4_stage_29.ts
    TIME-SERIES DATA WILL BE READ FROM FILE: r4_stage_30.ts
    TIME-SERIES DATA WILL BE READ FROM FILE: r4_stage_31.ts
    TIME-SERIES DATA WILL BE READ FROM FILE: r4_stage_32.ts
    TIME-SERIES DATA WILL BE READ FROM FILE: r4_stage_33.ts
    TIME-SERIES DATA WILL BE READ FROM FILE: r4_stage_34.ts
    TIME-SERIES DATA WILL BE READ FROM FILE: r4_stage_35.ts
    TIME-SERIES DATA WILL BE READ FROM FILE: r4_stage_36.ts
    TIME-SERIES DATA WILL BE READ FROM FILE: r4_stage_37.ts
    TIME-SERIES DATA WILL BE READ FROM FILE: r4_stage_38.ts
    TIME-SERIES DATA WILL BE READ FROM FILE: r4_stage_39.ts
    TIME-SERIES DATA WILL BE READ FROM FILE: r4_stage_40.ts
    TIME-SERIES DATA WILL BE READ FROM FILE: r4_stage_41.ts
    TIME-SERIES DATA WILL BE READ FROM FILE: r4_stage_42.ts
    TIME-SERIES DATA WILL BE READ FROM FILE: r4_stage_43.ts
    TIME-SERIES DATA WILL BE READ FROM FILE: r4_stage_44.ts
    TIME-SERIES DATA WILL BE READ FROM FILE: r4_stage_45.ts
    TIME-SERIES DATA WILL BE READ FROM FILE: r4_stage_46.ts
    TIME-SERIES DATA WILL BE READ FROM FILE: r4_stage_47.ts
    TIME-SERIES DATA WILL BE READ FROM FILE: r4_stage_48.ts
    TIME-SERIES DATA WILL BE READ FROM FILE: r4_stage_49.ts
    TIME-SERIES DATA WILL BE READ FROM FILE: r4_stage_50.ts
    TIME-SERIES DATA WILL BE READ FROM FILE: r4_stage_51.ts
    TIME-SERIES DATA WILL BE READ FROM FILE: r4_stage_52.ts
    TIME-SERIES DATA WILL BE READ FROM FILE: r4_stage_53.ts
    TIME-SERIES DATA WILL BE READ FROM FILE: r4_stage_54.ts
    TIME-SERIES DATA WILL BE READ FROM FILE: r4_stage_55.ts
    TIME-SERIES DATA WILL BE READ FROM FILE: r4_stage_56.ts
    TIME-SERIES DATA WILL BE READ FROM FILE: r4_stage_57.ts
    TIME-SERIES DATA WILL BE READ FROM FILE: r4_stage_58.ts
    TIME-SERIES DATA WILL BE READ FROM FILE: r4_stage_59.ts
    TIME-SERIES DATA WILL BE READ FROM FILE: r4_stage_60.ts
    TIME-SERIES DATA WILL BE READ FROM FILE: r4_stage_61.ts
    TIME-SERIES DATA WILL BE READ FROM FILE: r4_stage_62.ts
    TIME-SERIES DATA WILL BE READ FROM FILE: r4_stage_63.ts
    TIME-SERIES DATA WILL BE READ FROM FILE: r4_stage_64.ts
    TIME-SERIES DATA WILL BE READ FROM FILE: r4_stage_65.ts
    TIME-SERIES DATA WILL BE READ FROM FILE: r4_stage_66.ts
    TIME-SERIES DATA WILL BE READ FROM FILE: r4_stage_67.ts
    TIME-SERIES DATA WILL BE READ FROM FILE: r4_stage_68.ts
    TIME-SERIES DATA WILL BE READ FROM FILE: r4_stage_69.ts
    TIME-SERIES DATA WILL BE READ FROM FILE: r4_stage_70.ts
    TIME-SERIES DATA WILL BE READ FROM FILE: r4_stage_71.ts
    TIME-SERIES DATA WILL BE READ FROM FILE: r4_stage_72.ts
    TIME-SERIES DATA WILL BE READ FROM FILE: r4_stage_73.ts
    TIME-SERIES DATA WILL BE READ FROM FILE: r4_stage_74.ts
    TIME-SERIES DATA WILL BE READ FROM FILE: r4_stage_75.ts
    TIME-SERIES DATA WILL BE READ FROM FILE: r4_stage_76.ts
    TIME-SERIES DATA WILL BE READ FROM FILE: r4_stage_77.ts
    TIME-SERIES DATA WILL BE READ FROM FILE: r4_stage_78.ts
    TIME-SERIES DATA WILL BE READ FROM FILE: r4_stage_79.ts
    TIME-SERIES DATA WILL BE READ FROM FILE: r4_stage_80.ts
    TIME-SERIES DATA WILL BE READ FROM FILE: r4_stage_81.ts
    TIME-SERIES DATA WILL BE READ FROM FILE: r4_stage_82.ts
    TIME-SERIES DATA WILL BE READ FROM FILE: r4_stage_83.ts
    TIME-SERIES DATA WILL BE READ FROM FILE: r4_stage_84.ts
    TIME-SERIES DATA WILL BE READ FROM FILE: r4_stage_85.ts
    TIME-SERIES DATA WILL BE READ FROM FILE: r4_stage_86.ts
    TIME-SERIES DATA WILL BE READ FROM FILE: r4_stage_87.ts
    TIME-SERIES DATA WILL BE READ FROM FILE: r4_stage_88.ts
    TIME-SERIES DATA WILL BE READ FROM FILE: r4_stage_89.ts
    TIME-SERIES DATA WILL BE READ FROM FILE: r4_stage_90.ts
    TIME-SERIES DATA WILL BE READ FROM FILE: r4_stage_91.ts
    TIME-SERIES DATA WILL BE READ FROM FILE: r4_stage_92.ts
    TIME-SERIES DATA WILL BE READ FROM FILE: r4_stage_93.ts
    TIME-SERIES DATA WILL BE READ FROM FILE: r4_stage_94.ts
    TIME-SERIES DATA WILL BE READ FROM FILE: r4_stage_95.ts
    TIME-SERIES DATA WILL BE READ FROM FILE: r4_stage_96.ts
    TIME-SERIES DATA WILL BE READ FROM FILE: r4_stage_97.ts
    TIME-SERIES DATA WILL BE READ FROM FILE: r4_stage_98.ts
    TIME-SERIES DATA WILL BE READ FROM FILE: r4_stage_99.ts
    TIME-SERIES DATA WILL BE READ FROM FILE: r4_stage_100.ts
    TIME-SERIES DATA WILL BE READ FROM FILE: r4_stage_101.ts
    TIME-SERIES DATA WILL BE READ FROM FILE: r4_stage_102.ts
    TIME-SERIES DATA WILL BE READ FROM FILE: r4_stage_103.ts
    TIME-SERIES DATA WILL BE READ FROM FILE: r4_stage_104.ts
    TIME-SERIES DATA WILL BE READ FROM FILE: r4_stage_105.ts
    TIME-SERIES DATA WILL BE READ FROM FILE: r4_stage_106.ts
    TIME-SERIES DATA WILL BE READ FROM FILE: r4_stage_107.ts
    TIME-SERIES DATA WILL BE READ FROM FILE: r4_stage_108.ts
    TIME-SERIES DATA WILL BE READ FROM FILE: r4_stage_109.ts
    TIME-SERIES DATA WILL BE READ FROM FILE: r4_stage_110.ts
    TIME-SERIES DATA WILL BE READ FROM FILE: r4_stage_111.ts
    TIME-SERIES DATA WILL BE READ FROM FILE: r4_stage_112.ts
    TIME-SERIES DATA WILL BE READ FROM FILE: r4_stage_113.ts
    TIME-SERIES DATA WILL BE READ FROM FILE: r4_stage_114.ts
    TIME-SERIES DATA WILL BE READ FROM FILE: r4_stage_115.ts
    TIME-SERIES DATA WILL BE READ FROM FILE: r4_stage_116.ts
    TIME-SERIES DATA WILL BE READ FROM FILE: r4_stage_117.ts
    TIME-SERIES DATA WILL BE READ FROM FILE: r4_stage_118.ts
    TIME-SERIES DATA WILL BE READ FROM FILE: r4_stage_119.ts
    TIME-SERIES DATA WILL BE READ FROM FILE: r4_stage_120.ts
    TIME-SERIES DATA WILL BE READ FROM FILE: r4_stage_121.ts
    TIME-SERIES DATA WILL BE READ FROM FILE: r4_stage_122.ts
    TIME-SERIES DATA WILL BE READ FROM FILE: r4_stage_123.ts
    TIME-SERIES DATA WILL BE READ FROM FILE: r4_stage_124.ts
    TIME-SERIES DATA WILL BE READ FROM FILE: r4_stage_125.ts
    TIME-SERIES DATA WILL BE READ FROM FILE: r4_stage_126.ts
    TIME-SERIES DATA WILL BE READ FROM FILE: r4_stage_127.ts
    TIME-SERIES DATA WILL BE READ FROM FILE: r4_stage_128.ts
    TIME-SERIES DATA WILL BE READ FROM FILE: r4_stage_129.ts
    TIME-SERIES DATA WILL BE READ FROM FILE: r4_stage_130.ts
    TIME-SERIES DATA WILL BE READ FROM FILE: r4_stage_131.ts
    TIME-SERIES DATA WILL BE READ FROM FILE: r4_stage_132.ts
    TIME-SERIES DATA WILL BE READ FROM FILE: r4_stage_133.ts
    TIME-SERIES DATA WILL BE READ FROM FILE: r4_stage_134.ts
    TIME-SERIES DATA WILL BE READ FROM FILE: r4_stage_135.ts
    TIME-SERIES DATA WILL BE READ FROM FILE: r4_stage_136.ts
    TIME-SERIES DATA WILL BE READ FROM FILE: r4_stage_137.ts
    TIME-SERIES DATA WILL BE READ FROM FILE: r4_stage_138.ts
    TIME-SERIES DATA WILL BE READ FROM FILE: r4_stage_139.ts
    TIME-SERIES DATA WILL BE READ FROM FILE: r4_stage_140.ts
    TIME-SERIES DATA WILL BE READ FROM FILE: r4_stage_141.ts
    TIME-SERIES DATA WILL BE READ FROM FILE: r4_stage_142.ts
    TIME-SERIES DATA WILL BE READ FROM FILE: r4_stage_143.ts
    TIME-SERIES DATA WILL BE READ FROM FILE: r4_stage_144.ts
    TIME-SERIES DATA WILL BE READ FROM FILE: r4_stage_145.ts
    TIME-SERIES DATA WILL BE READ FROM FILE: r4_stage_146.ts
    TIME-SERIES DATA WILL BE READ FROM FILE: r4_stage_147.ts
    TIME-SERIES DATA WILL BE READ FROM FILE: r4_stage_148.ts
    TIME-SERIES DATA WILL BE READ FROM FILE: r4_stage_149.ts
    TIME-SERIES DATA WILL BE READ FROM FILE: r4_stage_150.ts
    TIME-SERIES DATA WILL BE READ FROM FILE: r4_stage_151.ts
    TIME-SERIES DATA WILL BE READ FROM FILE: r4_stage_152.ts

 OPENED DC_MF6.riv.obs
 FILE TYPE:OBS   UNIT 1479   STATUS:OLD                 
 FORMAT:FORMATTED              ACCESS:SEQUENTIAL          
 ACTION:READ                

 END OF RIV OPTIONS

 PROCESSING RIV DIMENSIONS
    MAXBOUND =     603
 END OF RIV DIMENSIONS

 GHB   -- GHB PACKAGE, VERSION 8, 2/22/2014 INPUT READ FROM UNIT 1011

 PROCESSING GHB OPTIONS
    GHB BOUNDARIES HAVE NAMES IN LAST COLUMN.
    FLOWS WILL BE SAVED TO BUDGET FILE SPECIFIED IN OUTPUT CONTROL

 OPENED DC_MF6.ghb.obs
 FILE TYPE:OBS   UNIT 1480   STATUS:OLD                 
 FORMAT:FORMATTED              ACCESS:SEQUENTIAL          
 ACTION:READ                

 END OF GHB OPTIONS

 PROCESSING GHB DIMENSIONS
    MAXBOUND =     865
 END OF GHB DIMENSIONS

 RCH   -- RCH PACKAGE, VERSION 8, 2/22/2014 INPUT READ FROM UNIT 1016

 PROCESSING RCH OPTIONS
    RCH BOUNDARIES HAVE NAMES IN LAST COLUMN.
    FLOWS WILL BE SAVED TO BUDGET FILE SPECIFIED IN OUTPUT CONTROL
    TIME-SERIES DATA WILL BE READ FROM FILE: rch_infil_ts.ts

 OPENED DC_MF6.rch.obs
 FILE TYPE:OBS   UNIT 1482   STATUS:OLD                 
 FORMAT:FORMATTED              ACCESS:SEQUENTIAL          
 ACTION:READ                

 END OF RCH OPTIONS

 PROCESSING RCH DIMENSIONS
    MAXBOUND =     464
 END OF RCH DIMENSIONS

 CHD   -- CHD PACKAGE, VERSION 8, 2/22/2014 INPUT READ FROM UNIT 1012

 PROCESSING CHD OPTIONS
    CHD BOUNDARIES HAVE NAMES IN LAST COLUMN.
    FLOWS WILL BE SAVED TO BUDGET FILE SPECIFIED IN OUTPUT CONTROL

 OPENED DC_MF6.chd.obs
 FILE TYPE:OBS   UNIT 1483   STATUS:OLD                 
 FORMAT:FORMATTED              ACCESS:SEQUENTIAL          
 ACTION:READ                

 END OF CHD OPTIONS

 PROCESSING CHD DIMENSIONS
    MAXBOUND =       4
 END OF CHD DIMENSIONS

 UZF   -- UZF CELLS PACKAGE, VERSION 8, 2/22/2014 INPUT READ FROM UNIT 1005

 PROCESSING UZF CELLS OPTIONS
    UZF CELLS BOUNDARIES HAVE NAMES IN LAST COLUMN.
    FLOWS WILL BE SAVED TO BUDGET FILE SPECIFIED IN OUTPUT CONTROL
    TIME-SERIES DATA WILL BE READ FROM FILE: uzf_infil_ts.ts

 OPENED DC_MF6.uzf.obs
 FILE TYPE:OBS   UNIT 1485   STATUS:OLD                 
 FORMAT:FORMATTED              ACCESS:SEQUENTIAL          
 ACTION:READ                

    GROUNDWATER DISCHARGE TO LAND SURFACE WILL BE SIMULATED.
 END OF UZF CELLS OPTIONS

 PROCESSING UZF CELLS DIMENSIONS
    NUZFCELLS = 11077
    NTRAILWAVES = 7
    NTRAILSETS = 40
 END OF UZF CELLS DIMENSIONS

 PROCESSING UZF CELLS PACKAGEDATA

 IC -- INITIAL CONDITIONS PACKAGE, VERSION 8, 3/28/2015 INPUT READ FROM UNIT 1006
 PROCESSING GRIDDATA
 END PROCESSING GRIDDATA
 PROCESSING GRIDDATA

                ICELLTYPE = 1 FOR LAYER 1

                ICELLTYPE = 1 FOR LAYER 2

                ICELLTYPE = 1 FOR LAYER 3

                ICELLTYPE = 1 FOR LAYER 4

                ICELLTYPE = 1 FOR LAYER 5

                ICELLTYPE = 1 FOR LAYER 6

                ICELLTYPE = 1 FOR LAYER 7
 K22 not provided.  Assuming K22 = K.
 END PROCESSING GRIDDATA

 STO -- STORAGE PACKAGE, VERSION 1, 5/19/2014 INPUT READ FROM UNIT 1009


 PROCESSING STORAGE OPTIONS
    CELL-BY-CELL FLOW INFORMATION WILL BE SAVED TO BINARY FILE WHENEVER ICBCFL IS NOT ZERO.
 END OF STORAGE OPTIONS
 PROCESSING GRIDDATA

                 ICONVERT = 1
 END PROCESSING GRIDDATA
    BINARY GRID INFORMATION WILL BE WRITTEN TO:
      UNIT NUMBER: 1486
      FILE NAME: DC_MF6.disv.grb

 OPENED DC_MF6.disv.grb
 FILE TYPE:DATA(BINARY)   UNIT 1486   STATUS:REPLACE             
 FORMAT:UNFORMATTED            ACCESS:STREAM              
 ACTION:READWRITE           

      THE LAST TIME STEP WILL BE PRINTED
      THE LAST TIME STEP WILL BE PRINTED

 PROCESSING OC OPTIONS

    BUDGET INFORMATION WILL BE WRITTEN TO:
      UNIT NUMBER: 1487
      FILE NAME: DC_MF6.cbb

 OPENED DC_MF6.cbb
 FILE TYPE:DATA(BINARY)   UNIT 1487   STATUS:REPLACE             
 FORMAT:UNFORMATTED            ACCESS:STREAM              
 ACTION:READWRITE           

    HEAD INFORMATION WILL BE WRITTEN TO:
      UNIT NUMBER: 1488
      FILE NAME: DC_MF6.hds

 OPENED DC_MF6.hds
 FILE TYPE:DATA(BINARY)   UNIT 1488   STATUS:REPLACE             
 FORMAT:UNFORMATTED            ACCESS:STREAM              
 ACTION:READWRITE           

 END OF OC OPTIONS

The observation utility is active for "DRN"

Processing observation options:



The observation utility is active for "RIV"

Processing observation options:



The observation utility is active for "GHB"

Processing observation options:



The observation utility is active for "RCH"

Processing observation options:



The observation utility is active for "CHD"

Processing observation options:



The observation utility is active for "UZF"

Processing observation options:



start timestep kper="1" kstp="1" mode="normal"


 BEGIN READING OUTPUT CONTROL FOR STRESS PERIOD 1
      THE LAST TIME STEP WILL BE SAVED
      THE FOLLOWING STEPS WILL BE PRINTED: 1 2 3 4 5 6 7 8 9 
      THE LAST TIME STEP WILL BE SAVED
      THE LAST TIME STEP WILL BE PRINTED

 END READING OUTPUT CONTROL FOR STRESS PERIOD 1


 PROCESSING STORAGE PERIOD DATA
 END PROCESSING STORAGE PERIOD DATA


 STRESS PERIOD 1 IS TRANSIENT



  UZF BUDGET FOR ENTIRE MODEL AT END OF TIME STEP    1, STRESS PERIOD   1
  ------------------------------------------------------------------------------

     CUMULATIVE UZF      L**3       RATES FOR THIS TIME STEP      L**3/T
     ------------------                 ------------------------

           IN:                                      IN:
           ---                                      ---
                 GWF =           0.0000                   GWF =           0.0000
        INFILTRATION =           0.0000          INFILTRATION =           0.0000
             REJ-INF =           0.0000               REJ-INF =           0.0000
             STORAGE =     4076836.9700               STORAGE =     4076836.9700

            TOTAL IN =     4076836.9700              TOTAL IN =     4076836.9700

          OUT:                                     OUT:
          ----                                     ----
                 GWF =     1797634.8953                   GWF =     1797634.8953
        INFILTRATION =           0.0000          INFILTRATION =           0.0000
             REJ-INF =           0.0000               REJ-INF =           0.0000
             STORAGE =           0.0000               STORAGE =           0.0000

           TOTAL OUT =     1797634.8953             TOTAL OUT =     1797634.8953

            IN - OUT =     2279202.0747              IN - OUT =     2279202.0747

 PERCENT DISCREPANCY =          77.60     PERCENT DISCREPANCY =          77.60



  VOLUME BUDGET FOR ENTIRE MODEL AT END OF TIME STEP    1, STRESS PERIOD   1
  ---------------------------------------------------------------------------------------------------

     CUMULATIVE VOLUME      L**3       RATES FOR THIS TIME STEP      L**3/T          PACKAGE NAME    
     ------------------                 ------------------------                     ----------------

           IN:                                      IN:
           ---                                      ---
              STO-SS =         464.8000                STO-SS =         464.8000     STORAGE         
              STO-SY =       19305.7615                STO-SY =       19305.7615     STORAGE         
                 DRN =           0.0000                   DRN =           0.0000     DRN             
                 RIV =           0.0000                   RIV =           0.0000     RIV             
                 GHB =       38108.3795                   GHB =       38108.3795     GHB             
                 RCH =           0.0000                   RCH =           0.0000     RCH             
                 CHD =           0.0000                   CHD =           0.0000     CHD             
           UZF-GWRCH =     1797634.8953             UZF-GWRCH =     1797634.8953     UZF             
             UZF-GWD =           0.0000               UZF-GWD =           0.0000     UZF             

            TOTAL IN =     1855513.8363              TOTAL IN =     1855513.8363

          OUT:                                     OUT:
          ----                                     ----
              STO-SS =       26343.5034                STO-SS =       26343.5034     STORAGE         
              STO-SY =     1741480.0597                STO-SY =     1741480.0597     STORAGE         
                 DRN =       33348.0878                   DRN =       33348.0878     DRN             
                 RIV =        3187.9459                   RIV =        3187.9459     RIV             
                 GHB =        1798.9145                   GHB =        1798.9145     GHB             
                 RCH =           0.0000                   RCH =           0.0000     RCH             
                 CHD =         183.1765                   CHD =         183.1765     CHD             
           UZF-GWRCH =           0.0000             UZF-GWRCH =           0.0000     UZF             
             UZF-GWD =       47524.2861               UZF-GWD =       47524.2861     UZF             

           TOTAL OUT =     1853865.9739             TOTAL OUT =     1853865.9739

            IN - OUT =        1647.8624              IN - OUT =        1647.8624

 PERCENT DISCREPANCY =           0.09     PERCENT DISCREPANCY =           0.09




         TIME SUMMARY AT END OF TIME STEP    1 IN STRESS PERIOD    1
                    SECONDS     MINUTES      HOURS       DAYS        YEARS
                    -----------------------------------------------------------
   TIME STEP LENGTH  86400.      1440.0      24.000      1.0000     2.73785E-03
 STRESS PERIOD TIME  86400.      1440.0      24.000      1.0000     2.73785E-03
         TOTAL TIME  86400.      1440.0      24.000      1.0000     2.73785E-03


end timestep


start timestep kper="1" kstp="2" mode="normal"



  UZF BUDGET FOR ENTIRE MODEL AT END OF TIME STEP    2, STRESS PERIOD   1
  ------------------------------------------------------------------------------

     CUMULATIVE UZF      L**3       RATES FOR THIS TIME STEP      L**3/T
     ------------------                 ------------------------

           IN:                                      IN:
           ---                                      ---
                 GWF =           0.0000                   GWF =           0.0000
        INFILTRATION =           0.0000          INFILTRATION =           0.0000
             REJ-INF =           0.0000               REJ-INF =           0.0000
             STORAGE =     8140323.8572               STORAGE =     4063486.8873

            TOTAL IN =     8140323.8572              TOTAL IN =     4063486.8873

          OUT:                                     OUT:
          ----                                     ----
                 GWF =     3581919.7426                   GWF =     1784284.8473
        INFILTRATION =           0.0000          INFILTRATION =           0.0000
             REJ-INF =           0.0000               REJ-INF =           0.0000
             STORAGE =           0.0000               STORAGE =           0.0000

           TOTAL OUT =     3581919.7426             TOTAL OUT =     1784284.8473

            IN - OUT =     4558404.1146              IN - OUT =     2279202.0399

 PERCENT DISCREPANCY =          77.77     PERCENT DISCREPANCY =          77.95



  VOLUME BUDGET FOR ENTIRE MODEL AT END OF TIME STEP    2, STRESS PERIOD   1
  ---------------------------------------------------------------------------------------------------

     CUMULATIVE VOLUME      L**3       RATES FOR THIS TIME STEP      L**3/T          PACKAGE NAME    
     ------------------                 ------------------------                     ----------------

           IN:                                      IN:
           ---                                      ---
              STO-SS =         864.6227                STO-SS =         399.8227     STORAGE         
              STO-SY =       36950.5290                STO-SY =       17644.7675     STORAGE         
                 DRN =           0.0000                   DRN =           0.0000     DRN             
                 RIV =           0.0000                   RIV =           0.0000     RIV             
                 GHB =       76215.8494                   GHB =       38107.4698     GHB             
                 RCH =           0.0000                   RCH =           0.0000     RCH             
                 CHD =           0.0000                   CHD =           0.0000     CHD             
           UZF-GWRCH =     3581919.7426             UZF-GWRCH =     1784284.8473     UZF             
             UZF-GWD =           0.0000               UZF-GWD =           0.0000     UZF             

            TOTAL IN =     3695950.7437              TOTAL IN =     1840436.9074

          OUT:                                     OUT:
          ----                                     ----
              STO-SS =       53214.9128                STO-SS =       26871.4094     STORAGE         
              STO-SY =     3451677.4664                STO-SY =     1710197.4068     STORAGE         
                 DRN =       66701.5771                   DRN =       33353.4893     DRN             
                 RIV =        6413.9636                   RIV =        3226.0176     RIV             
                 GHB =        3597.2820                   GHB =        1798.3675     GHB             
                 RCH =           0.0000                   RCH =           0.0000     RCH             
                 CHD =         366.3695                   CHD =         183.1930     CHD             
           UZF-GWRCH =           0.0000             UZF-GWRCH =           0.0000     UZF             
             UZF-GWD =       96657.2244               UZF-GWD =       49132.9383     UZF             

           TOTAL OUT =     3678628.7957             TOTAL OUT =     1824762.8219

            IN - OUT =       17321.9479              IN - OUT =       15674.0855

 PERCENT DISCREPANCY =           0.47     PERCENT DISCREPANCY =           0.86




         TIME SUMMARY AT END OF TIME STEP    2 IN STRESS PERIOD    1
                    SECONDS     MINUTES      HOURS       DAYS        YEARS
                    -----------------------------------------------------------
   TIME STEP LENGTH  86400.      1440.0      24.000      1.0000     2.73785E-03
 STRESS PERIOD TIME 1.72800E+05  2880.0      48.000      2.0000     5.47570E-03
         TOTAL TIME 1.72800E+05  2880.0      48.000      2.0000     5.47570E-03


end timestep


start timestep kper="1" kstp="3" mode="normal"



  UZF BUDGET FOR ENTIRE MODEL AT END OF TIME STEP    3, STRESS PERIOD   1
  ------------------------------------------------------------------------------

     CUMULATIVE UZF      L**3       RATES FOR THIS TIME STEP      L**3/T
     ------------------                 ------------------------

           IN:                                      IN:
           ---                                      ---
                 GWF =           0.0000                   GWF =           0.0000
        INFILTRATION =           0.0000          INFILTRATION =           0.0000
             REJ-INF =           0.0000               REJ-INF =           0.0000
             STORAGE =    12189198.6900               STORAGE =     4048874.8328

            TOTAL IN =    12189198.6900              TOTAL IN =     4048874.8328

          OUT:                                     OUT:
          ----                                     ----
                 GWF =     5351592.5355                   GWF =     1769672.7929
        INFILTRATION =           0.0000          INFILTRATION =           0.0000
             REJ-INF =           0.0000               REJ-INF =           0.0000
             STORAGE =           0.0000               STORAGE =           0.0000

           TOTAL OUT =     5351592.5355             TOTAL OUT =     1769672.7929

            IN - OUT =     6837606.1545              IN - OUT =     2279202.0399

 PERCENT DISCREPANCY =          77.96     PERCENT DISCREPANCY =          78.34



  VOLUME BUDGET FOR ENTIRE MODEL AT END OF TIME STEP    3, STRESS PERIOD   1
  ---------------------------------------------------------------------------------------------------

     CUMULATIVE VOLUME      L**3       RATES FOR THIS TIME STEP      L**3/T          PACKAGE NAME    
     ------------------                 ------------------------                     ----------------

           IN:                                      IN:
           ---                                      ---
              STO-SS =        1225.3221                STO-SS =         360.6994     STORAGE         
              STO-SY =       53692.1506                STO-SY =       16741.6217     STORAGE         
                 DRN =           0.0000                   DRN =           0.0000     DRN             
                 RIV =           0.0000                   RIV =           0.0000     RIV             
                 GHB =      114321.9721                   GHB =       38106.1227     GHB             
                 RCH =           0.0000                   RCH =           0.0000     RCH             
                 CHD =           0.0000                   CHD =           0.0000     CHD             
           UZF-GWRCH =     5351592.5355             UZF-GWRCH =     1769672.7929     UZF             
             UZF-GWD =           0.0000               UZF-GWD =           0.0000     UZF             

            TOTAL IN =     5520831.9804              TOTAL IN =     1824881.2367

          OUT:                                     OUT:
          ----                                     ----
              STO-SS =       80563.9250                STO-SS =       27349.0122     STORAGE         
              STO-SY =     5144714.7269                STO-SY =     1693037.2605     STORAGE         
                 DRN =      100057.3998                   DRN =       33355.8227     DRN             
                 RIV =        9674.9513                   RIV =        3260.9878     RIV             
                 GHB =        5395.2617                   GHB =        1797.9798     GHB             
                 RCH =           0.0000                   RCH =           0.0000     RCH             
                 CHD =         549.6503                   CHD =         183.2808     CHD             
           UZF-GWRCH =           0.0000             UZF-GWRCH =           0.0000     UZF             
             UZF-GWD =      147024.1779               UZF-GWD =       50366.9535     UZF             

           TOTAL OUT =     5487980.0930             TOTAL OUT =     1809351.2972

            IN - OUT =       32851.8874              IN - OUT =       15529.9395

 PERCENT DISCREPANCY =           0.60     PERCENT DISCREPANCY =           0.85




         TIME SUMMARY AT END OF TIME STEP    3 IN STRESS PERIOD    1
                    SECONDS     MINUTES      HOURS       DAYS        YEARS
                    -----------------------------------------------------------
   TIME STEP LENGTH  86400.      1440.0      24.000      1.0000     2.73785E-03
 STRESS PERIOD TIME 2.59200E+05  4320.0      72.000      3.0000     8.21355E-03
         TOTAL TIME 2.59200E+05  4320.0      72.000      3.0000     8.21355E-03


end timestep


start timestep kper="1" kstp="4" mode="normal"



  UZF BUDGET FOR ENTIRE MODEL AT END OF TIME STEP    4, STRESS PERIOD   1
  ------------------------------------------------------------------------------

     CUMULATIVE UZF      L**3       RATES FOR THIS TIME STEP      L**3/T
     ------------------                 ------------------------

           IN:                                      IN:
           ---                                      ---
                 GWF =           0.0000                   GWF =           0.0000
        INFILTRATION =       88684.8704          INFILTRATION =       88684.8704
             REJ-INF =           0.0000               REJ-INF =           0.0000
             STORAGE =    16133713.0732               STORAGE =     3944514.3832

            TOTAL IN =    16222397.9436              TOTAL IN =     4033199.2536

          OUT:                                     OUT:
          ----                                     ----
                 GWF =     7106723.0917                   GWF =     1755130.5562
        INFILTRATION =           0.0000          INFILTRATION =           0.0000
             REJ-INF =         354.2812               REJ-INF =         354.2812
             STORAGE =           5.5822               STORAGE =           5.5822

           TOTAL OUT =     7107082.9551             TOTAL OUT =     1755490.4196

            IN - OUT =     9115314.9885              IN - OUT =     2277708.8340

 PERCENT DISCREPANCY =          78.14     PERCENT DISCREPANCY =          78.70



  VOLUME BUDGET FOR ENTIRE MODEL AT END OF TIME STEP    4, STRESS PERIOD   1
  ---------------------------------------------------------------------------------------------------

     CUMULATIVE VOLUME      L**3       RATES FOR THIS TIME STEP      L**3/T          PACKAGE NAME    
     ------------------                 ------------------------                     ----------------

           IN:                                      IN:
           ---                                      ---
              STO-SS =        1510.9276                STO-SS =         285.6055     STORAGE         
              STO-SY =       69223.0337                STO-SY =       15530.8831     STORAGE         
                 DRN =           0.0000                   DRN =           0.0000     DRN             
                 RIV =        7552.5277                   RIV =        7552.5277     RIV             
                 GHB =      152426.3315                   GHB =       38104.3594     GHB             
                 RCH =         759.3732                   RCH =         759.3732     RCH             
                 CHD =           0.0000                   CHD =           0.0000     CHD             
           UZF-GWRCH =     7106723.0917             UZF-GWRCH =     1755130.5562     UZF             
             UZF-GWD =           0.0000               UZF-GWD =           0.0000     UZF             

            TOTAL IN =     7338195.2854              TOTAL IN =     1817363.3050

          OUT:                                     OUT:
          ----                                     ----
              STO-SS =      108784.9378                STO-SS =       28221.0128     STORAGE         
              STO-SY =     6844460.3194                STO-SY =     1699745.5925     STORAGE         
                 DRN =      133416.7612                   DRN =       33359.3614     DRN             
                 RIV =       12059.6509                   RIV =        2384.6995     RIV             
                 GHB =        7194.0844                   GHB =        1798.8227     GHB             
                 RCH =           0.0000                   RCH =           0.0000     RCH             
                 CHD =         733.6310                   CHD =         183.9808     CHD             
           UZF-GWRCH =           0.0000             UZF-GWRCH =           0.0000     UZF             
             UZF-GWD =      198523.6000               UZF-GWD =       51499.4221     UZF             

           TOTAL OUT =     7305172.9848             TOTAL OUT =     1817192.8918

            IN - OUT =       33022.3006              IN - OUT =         170.4132

 PERCENT DISCREPANCY =           0.45     PERCENT DISCREPANCY =           0.01




         TIME SUMMARY AT END OF TIME STEP    4 IN STRESS PERIOD    1
                    SECONDS     MINUTES      HOURS       DAYS        YEARS
                    -----------------------------------------------------------
   TIME STEP LENGTH  86400.      1440.0      24.000      1.0000     2.73785E-03
 STRESS PERIOD TIME 3.45600E+05  5760.0      96.000      4.0000     1.09514E-02
         TOTAL TIME 3.45600E+05  5760.0      96.000      4.0000     1.09514E-02


end timestep


start timestep kper="1" kstp="5" mode="normal"



  UZF BUDGET FOR ENTIRE MODEL AT END OF TIME STEP    5, STRESS PERIOD   1
  ------------------------------------------------------------------------------

     CUMULATIVE UZF      L**3       RATES FOR THIS TIME STEP      L**3/T
     ------------------                 ------------------------

           IN:                                      IN:
           ---                                      ---
                 GWF =           0.0000                   GWF =           0.0000
        INFILTRATION =      135415.6041          INFILTRATION =       46730.7337
             REJ-INF =           0.0000               REJ-INF =           0.0000
             STORAGE =    20089450.0635               STORAGE =     3955736.9903

            TOTAL IN =    20224865.6677              TOTAL IN =     4002467.7240

          OUT:                                     OUT:
          ----                                     ----
                 GWF =     8843163.6209                   GWF =     1736440.5292
        INFILTRATION =           0.0000          INFILTRATION =           0.0000
             REJ-INF =         542.1119               REJ-INF =         187.8308
             STORAGE =           6.7287               STORAGE =           1.1464

           TOTAL OUT =     8843712.4615             TOTAL OUT =     1736629.5064

            IN - OUT =    11381153.2062              IN - OUT =     2265838.2176

 PERCENT DISCREPANCY =          78.31     PERCENT DISCREPANCY =          78.96



  VOLUME BUDGET FOR ENTIRE MODEL AT END OF TIME STEP    5, STRESS PERIOD   1
  ---------------------------------------------------------------------------------------------------

     CUMULATIVE VOLUME      L**3       RATES FOR THIS TIME STEP      L**3/T          PACKAGE NAME    
     ------------------                 ------------------------                     ----------------

           IN:                                      IN:
           ---                                      ---
              STO-SS =        1791.8924                STO-SS =         280.9648     STORAGE         
              STO-SY =       84312.6800                STO-SY =       15089.6462     STORAGE         
                 DRN =           0.0000                   DRN =           0.0000     DRN             
                 RIV =       15093.8599                   RIV =        7541.3322     RIV             
                 GHB =      190528.5700                   GHB =       38102.2386     GHB             
                 RCH =        1159.5099                   RCH =         400.1367     RCH             
                 CHD =           0.0000                   CHD =           0.0000     CHD             
           UZF-GWRCH =     8843163.6209             UZF-GWRCH =     1736440.5292     UZF             
             UZF-GWD =           0.0000               UZF-GWD =           0.0000     UZF             

            TOTAL IN =     9136050.1330              TOTAL IN =     1797854.8476

          OUT:                                     OUT:
          ----                                     ----
              STO-SS =      136880.0957                STO-SS =       28095.1579     STORAGE         
              STO-SY =     8508827.1666                STO-SY =     1664366.8472     STORAGE         
                 DRN =      166779.8325                   DRN =       33363.0713     DRN             
                 RIV =       14471.8808                   RIV =        2412.2299     RIV             
                 GHB =        8993.4585                   GHB =        1799.3741     GHB             
                 RCH =           0.0000                   RCH =           0.0000     RCH             
                 CHD =         917.7163                   CHD =         184.0853     CHD             
           UZF-GWRCH =           0.0000             UZF-GWRCH =           0.0000     UZF             
             UZF-GWD =      250908.0301               UZF-GWD =       52384.4301     UZF             

           TOTAL OUT =     9087778.1805             TOTAL OUT =     1782605.1957

            IN - OUT =       48271.9525              IN - OUT =       15249.6518

 PERCENT DISCREPANCY =           0.53     PERCENT DISCREPANCY =           0.85




         TIME SUMMARY AT END OF TIME STEP    5 IN STRESS PERIOD    1
                    SECONDS     MINUTES      HOURS       DAYS        YEARS
                    -----------------------------------------------------------
   TIME STEP LENGTH  86400.      1440.0      24.000      1.0000     2.73785E-03
 STRESS PERIOD TIME 4.32000E+05  7200.0      120.00      5.0000     1.36893E-02
         TOTAL TIME 4.32000E+05  7200.0      120.00      5.0000     1.36893E-02


end timestep


start timestep kper="1" kstp="6" mode="normal"



  UZF BUDGET FOR ENTIRE MODEL AT END OF TIME STEP    6, STRESS PERIOD   1
  ------------------------------------------------------------------------------

     CUMULATIVE UZF      L**3       RATES FOR THIS TIME STEP      L**3/T
     ------------------                 ------------------------

           IN:                                      IN:
           ---                                      ---
                 GWF =           0.0000                   GWF =           0.0000
        INFILTRATION =      135415.6041          INFILTRATION =           0.0000
             REJ-INF =           0.0000               REJ-INF =           0.0000
             STORAGE =    24056064.6682               STORAGE =     3966614.6047

            TOTAL IN =    24191480.2723              TOTAL IN =     3966614.6047

          OUT:                                     OUT:
          ----                                     ----
                 GWF =    10562106.0227                   GWF =     1718942.4018
        INFILTRATION =           0.0000          INFILTRATION =           0.0000
             REJ-INF =         542.1119               REJ-INF =           0.0000
             STORAGE =           6.7287               STORAGE =           0.0000

           TOTAL OUT =    10562654.8633             TOTAL OUT =     1718942.4018

            IN - OUT =    13628825.4090              IN - OUT =     2247672.2029

 PERCENT DISCREPANCY =          78.43     PERCENT DISCREPANCY =          79.07



  VOLUME BUDGET FOR ENTIRE MODEL AT END OF TIME STEP    6, STRESS PERIOD   1
  ---------------------------------------------------------------------------------------------------

     CUMULATIVE VOLUME      L**3       RATES FOR THIS TIME STEP      L**3/T          PACKAGE NAME    
     ------------------                 ------------------------                     ----------------

           IN:                                      IN:
           ---                                      ---
              STO-SS =        2136.0793                STO-SS =         344.1870     STORAGE         
              STO-SY =       99344.2845                STO-SY =       15031.6045     STORAGE         
                 DRN =           0.0000                   DRN =           0.0000     DRN             
                 RIV =       15093.8599                   RIV =           0.0000     RIV             
                 GHB =      228628.3534                   GHB =       38099.7834     GHB             
                 RCH =        1159.5099                   RCH =           0.0000     RCH             
                 CHD =           0.0000                   CHD =           0.0000     CHD             
           UZF-GWRCH =    10562106.0227             UZF-GWRCH =     1718942.4018     UZF             
             UZF-GWD =           0.0000               UZF-GWD =           0.0000     UZF             

            TOTAL IN =    10908468.1097              TOTAL IN =     1772417.9767

          OUT:                                     OUT:
          ----                                     ----
              STO-SS =      164896.2987                STO-SS =       28016.2029     STORAGE         
              STO-SY =    10146423.7617                STO-SY =     1637596.5951     STORAGE         
                 DRN =      200146.7558                   DRN =       33366.9233     DRN             
                 RIV =       17837.9266                   RIV =        3366.0458     RIV             
                 GHB =       10792.8001                   GHB =        1799.3416     GHB             
                 RCH =           0.0000                   RCH =           0.0000     RCH             
                 CHD =        1101.6900                   CHD =         183.9736     CHD             
           UZF-GWRCH =           0.0000             UZF-GWRCH =           0.0000     UZF             
             UZF-GWD =      303897.9334               UZF-GWD =       52989.9034     UZF             

           TOTAL OUT =    10845097.1662             TOTAL OUT =     1757318.9857

            IN - OUT =       63370.9435              IN - OUT =       15098.9910

 PERCENT DISCREPANCY =           0.58     PERCENT DISCREPANCY =           0.86




         TIME SUMMARY AT END OF TIME STEP    6 IN STRESS PERIOD    1
                    SECONDS     MINUTES      HOURS       DAYS        YEARS
                    -----------------------------------------------------------
   TIME STEP LENGTH  86400.      1440.0      24.000      1.0000     2.73785E-03
 STRESS PERIOD TIME 5.18400E+05  8640.0      144.00      6.0000     1.64271E-02
         TOTAL TIME 5.18400E+05  8640.0      144.00      6.0000     1.64271E-02


end timestep


start timestep kper="1" kstp="7" mode="normal"



  UZF BUDGET FOR ENTIRE MODEL AT END OF TIME STEP    7, STRESS PERIOD   1
  ------------------------------------------------------------------------------

     CUMULATIVE UZF      L**3       RATES FOR THIS TIME STEP      L**3/T
     ------------------                 ------------------------

           IN:                                      IN:
           ---                                      ---
                 GWF =           0.0000                   GWF =           0.0000
        INFILTRATION =      135415.6041          INFILTRATION =           0.0000
             REJ-INF =           0.0000               REJ-INF =           0.0000
             STORAGE =    27991726.7282               STORAGE =     3935662.0600

            TOTAL IN =    28127142.3323              TOTAL IN =     3935662.0600

          OUT:                                     OUT:
          ----                                     ----
                 GWF =    12265252.2715                   GWF =     1703146.2488
        INFILTRATION =           0.0000          INFILTRATION =           0.0000
             REJ-INF =         542.1119               REJ-INF =           0.0000
             STORAGE =           6.7287               STORAGE =       8.2676E-11

           TOTAL OUT =    12265801.1121             TOTAL OUT =     1703146.2488

            IN - OUT =    15861341.2202              IN - OUT =     2232515.8112

 PERCENT DISCREPANCY =          78.54     PERCENT DISCREPANCY =          79.18



  VOLUME BUDGET FOR ENTIRE MODEL AT END OF TIME STEP    7, STRESS PERIOD   1
  ---------------------------------------------------------------------------------------------------

     CUMULATIVE VOLUME      L**3       RATES FOR THIS TIME STEP      L**3/T          PACKAGE NAME    
     ------------------                 ------------------------                     ----------------

           IN:                                      IN:
           ---                                      ---
              STO-SS =        2448.9456                STO-SS =         312.8662     STORAGE         
              STO-SY =      113982.4754                STO-SY =       14638.1909     STORAGE         
                 DRN =           0.0000                   DRN =           0.0000     DRN             
                 RIV =       15093.8599                   RIV =           0.0000     RIV             
                 GHB =      266725.3780                   GHB =       38097.0246     GHB             
                 RCH =        1159.5099                   RCH =           0.0000     RCH             
                 CHD =           0.0000                   CHD =           0.0000     CHD             
           UZF-GWRCH =    12265252.2715             UZF-GWRCH =     1703146.2488     UZF             
             UZF-GWD =           0.0000               UZF-GWD =           0.0000     UZF             

            TOTAL IN =    12664662.4403              TOTAL IN =     1756194.3305

          OUT:                                     OUT:
          ----                                     ----
              STO-SS =      193016.4535                STO-SS =       28120.1548     STORAGE         
              STO-SY =    11767222.9959                STO-SY =     1620799.2342     STORAGE         
                 DRN =      233518.0920                   DRN =       33371.3363     DRN             
                 RIV =       21224.3508                   RIV =        3386.4242     RIV             
                 GHB =       12592.0719                   GHB =        1799.2718     GHB             
                 RCH =           0.0000                   RCH =           0.0000     RCH             
                 CHD =        1285.7336                   CHD =         184.0436     CHD             
           UZF-GWRCH =           0.0000             UZF-GWRCH =           0.0000     UZF             
             UZF-GWD =      357472.7050               UZF-GWD =       53574.7716     UZF             

           TOTAL OUT =    12586332.4027             TOTAL OUT =     1741235.2364

            IN - OUT =       78330.0376              IN - OUT =       14959.0941

 PERCENT DISCREPANCY =           0.62     PERCENT DISCREPANCY =           0.86




         TIME SUMMARY AT END OF TIME STEP    7 IN STRESS PERIOD    1
                    SECONDS     MINUTES      HOURS       DAYS        YEARS
                    -----------------------------------------------------------
   TIME STEP LENGTH  86400.      1440.0      24.000      1.0000     2.73785E-03
 STRESS PERIOD TIME 6.04800E+05  10080.      168.00      7.0000     1.91650E-02
         TOTAL TIME 6.04800E+05  10080.      168.00      7.0000     1.91650E-02


end timestep


start timestep kper="1" kstp="8" mode="normal"



  UZF BUDGET FOR ENTIRE MODEL AT END OF TIME STEP    8, STRESS PERIOD   1
  ------------------------------------------------------------------------------

     CUMULATIVE UZF      L**3       RATES FOR THIS TIME STEP      L**3/T
     ------------------                 ------------------------

           IN:                                      IN:
           ---                                      ---
                 GWF =           0.0000                   GWF =           0.0000
        INFILTRATION =      136634.1170          INFILTRATION =        1218.5129
             REJ-INF =           0.0000               REJ-INF =           0.0000
             STORAGE =    31889432.6541               STORAGE =     3897705.9259

            TOTAL IN =    32026066.7710              TOTAL IN =     3898924.4388

          OUT:                                     OUT:
          ----                                     ----
                 GWF =    13950287.1261                   GWF =     1685034.8546
        INFILTRATION =           0.0000          INFILTRATION =           0.0000
             REJ-INF =         547.0848               REJ-INF =           4.9729
             STORAGE =           6.7405               STORAGE =       1.1824E-02

           TOTAL OUT =    13950840.9514             TOTAL OUT =     1685039.8393

            IN - OUT =    18075225.8196              IN - OUT =     2213884.5994

 PERCENT DISCREPANCY =          78.63     PERCENT DISCREPANCY =          79.29



  VOLUME BUDGET FOR ENTIRE MODEL AT END OF TIME STEP    8, STRESS PERIOD   1
  ---------------------------------------------------------------------------------------------------

     CUMULATIVE VOLUME      L**3       RATES FOR THIS TIME STEP      L**3/T          PACKAGE NAME    
     ------------------                 ------------------------                     ----------------

           IN:                                      IN:
           ---                                      ---
              STO-SS =        2738.3100                STO-SS =         289.3644     STORAGE         
              STO-SY =      128243.1158                STO-SY =       14260.6404     STORAGE         
                 DRN =           0.0000                   DRN =           0.0000     DRN             
                 RIV =       15093.8599                   RIV =           0.0000     RIV             
                 GHB =      304819.3680                   GHB =       38093.9900     GHB             
                 RCH =        1169.9435                   RCH =          10.4336     RCH             
                 CHD =           0.0000                   CHD =           0.0000     CHD             
           UZF-GWRCH =    13950287.1261             UZF-GWRCH =     1685034.8546     UZF             
             UZF-GWD =           0.0000               UZF-GWD =           0.0000     UZF             

            TOTAL IN =    14402351.7233              TOTAL IN =     1737689.2830

          OUT:                                     OUT:
          ----                                     ----
              STO-SS =      221158.4874                STO-SS =       28142.0340     STORAGE         
              STO-SY =    13369108.5941                STO-SY =     1601885.5982     STORAGE         
                 DRN =      266894.0346                   DRN =       33375.9425     DRN             
                 RIV =       24629.7090                   RIV =        3405.3582     RIV             
                 GHB =       14391.3479                   GHB =        1799.2760     GHB             
                 RCH =           0.0000                   RCH =           0.0000     RCH             
                 CHD =        1469.8993                   CHD =         184.1658     CHD             
           UZF-GWRCH =           0.0000             UZF-GWRCH =           0.0000     UZF             
             UZF-GWD =      411567.5595               UZF-GWD =       54094.8545     UZF             

           TOTAL OUT =    14309219.6318             TOTAL OUT =     1722887.2291

            IN - OUT =       93132.0915              IN - OUT =       14802.0539

 PERCENT DISCREPANCY =           0.65     PERCENT DISCREPANCY =           0.86




         TIME SUMMARY AT END OF TIME STEP    8 IN STRESS PERIOD    1
                    SECONDS     MINUTES      HOURS       DAYS        YEARS
                    -----------------------------------------------------------
   TIME STEP LENGTH  86400.      1440.0      24.000      1.0000     2.73785E-03
 STRESS PERIOD TIME 6.91200E+05  11520.      192.00      8.0000     2.19028E-02
         TOTAL TIME 6.91200E+05  11520.      192.00      8.0000     2.19028E-02


end timestep


start timestep kper="1" kstp="9" mode="normal"



  UZF BUDGET FOR ENTIRE MODEL AT END OF TIME STEP    9, STRESS PERIOD   1
  ------------------------------------------------------------------------------

     CUMULATIVE UZF      L**3       RATES FOR THIS TIME STEP      L**3/T
     ------------------                 ------------------------

           IN:                                      IN:
           ---                                      ---
                 GWF =           0.0000                   GWF =           0.0000
        INFILTRATION =      664454.4702          INFILTRATION =      527820.3532
             REJ-INF =           0.0000               REJ-INF =           0.0000
             STORAGE =    35231205.4842               STORAGE =     3341772.8302

            TOTAL IN =    35895659.9545              TOTAL IN =     3869593.1834

          OUT:                                     OUT:
          ----                                     ----
                 GWF =    15618434.1231                   GWF =     1668146.9970
        INFILTRATION =           0.0000          INFILTRATION =           0.0000
             REJ-INF =        2710.6000               REJ-INF =        2163.5151
             STORAGE =        2475.7404               STORAGE =        2468.9999

           TOTAL OUT =    15623620.4634             TOTAL OUT =     1672779.5120

            IN - OUT =    20272039.4910              IN - OUT =     2196813.6714

 PERCENT DISCREPANCY =          78.70     PERCENT DISCREPANCY =          79.27



  VOLUME BUDGET FOR ENTIRE MODEL AT END OF TIME STEP    9, STRESS PERIOD   1
  ---------------------------------------------------------------------------------------------------

     CUMULATIVE VOLUME      L**3       RATES FOR THIS TIME STEP      L**3/T          PACKAGE NAME    
     ------------------                 ------------------------                     ----------------

           IN:                                      IN:
           ---                                      ---
              STO-SS =        2982.2454                STO-SS =         243.9354     STORAGE         
              STO-SY =      141679.6277                STO-SY =       13436.5119     STORAGE         
                 DRN =           0.0000                   DRN =           0.0000     DRN             
                 RIV =       22611.9966                   RIV =        7518.1368     RIV             
                 GHB =      342910.0450                   GHB =       38090.6769     GHB             
[...]
             UZF-GWD =           0.0000               UZF-GWD =           0.0000     UZF             

            TOTAL IN =   279147212.0247              TOTAL IN =       89956.0182

          OUT:                                     OUT:
          ----                                     ----
              STO-SS =     2222823.3031                STO-SS =         258.6872     STORAGE         
              STO-SY =   104237238.6847                STO-SY =        7980.8216     STORAGE         
                 DRN =    67057147.3519                   DRN =       33245.4778     DRN             
                 RIV =     5683300.6972                   RIV =        2036.4581     RIV             
                 GHB =     3628685.3890                   GHB =        1783.7588     GHB             
                 RCH =           0.0000                   RCH =           0.0000     RCH             
                 CHD =      370726.4282                   CHD =         182.8914     CHD             
           UZF-GWRCH =           0.0000             UZF-GWRCH =           0.0000     UZF             
             UZF-GWD =    95938856.3466               UZF-GWD =       44474.7189     UZF             

           TOTAL OUT =   279138778.2007             TOTAL OUT =       89962.8138

            IN - OUT =        8433.8240              IN - OUT =          -6.7956

 PERCENT DISCREPANCY =           0.00     PERCENT DISCREPANCY =          -0.01




         TIME SUMMARY AT END OF TIME STEP   30 IN STRESS PERIOD   66
                    SECONDS     MINUTES      HOURS       DAYS        YEARS
                    -----------------------------------------------------------
   TIME STEP LENGTH  86400.      1440.0      24.000      1.0000     2.73785E-03
 STRESS PERIOD TIME 2.59200E+06  43200.      720.00      30.000     8.21355E-02
         TOTAL TIME 1.73405E+08 2.89008E+06  48168.      2007.0      5.4949    


end timestep


start timestep kper="67" kstp="1" mode="normal"


 BEGIN READING OUTPUT CONTROL FOR STRESS PERIOD 67
      THE LAST TIME STEP WILL BE SAVED
      THE LAST TIME STEP WILL BE SAVED
      THE LAST TIME STEP WILL BE PRINTED

 END READING OUTPUT CONTROL FOR STRESS PERIOD 67


 STRESS PERIOD 67 IS TRANSIENT


 REUSING DRNS FROM LAST STRESS PERIOD

 REUSING RIVS FROM LAST STRESS PERIOD

 REUSING GHBS FROM LAST STRESS PERIOD

 REUSING RCHS FROM LAST STRESS PERIOD

 REUSING CHDS FROM LAST STRESS PERIOD

 REUSING UZFS FROM LAST STRESS PERIOD

end timestep


start timestep kper="67" kstp="2" mode="normal"


end timestep


start timestep kper="67" kstp="3" mode="normal"


end timestep


start timestep kper="67" kstp="4" mode="normal"


end timestep


start timestep kper="67" kstp="5" mode="normal"


end timestep


start timestep kper="67" kstp="6" mode="normal"


end timestep


start timestep kper="67" kstp="7" mode="normal"


end timestep


start timestep kper="67" kstp="8" mode="normal"


end timestep


start timestep kper="67" kstp="9" mode="normal"


end timestep


start timestep kper="67" kstp="10" mode="normal"


end timestep


start timestep kper="67" kstp="11" mode="normal"


end timestep


start timestep kper="67" kstp="12" mode="normal"


end timestep


start timestep kper="67" kstp="13" mode="normal"


end timestep


start timestep kper="67" kstp="14" mode="normal"


end timestep


start timestep kper="67" kstp="15" mode="normal"


end timestep


start timestep kper="67" kstp="16" mode="normal"


end timestep


start timestep kper="67" kstp="17" mode="normal"


end timestep


start timestep kper="67" kstp="18" mode="normal"


end timestep


start timestep kper="67" kstp="19" mode="normal"


end timestep


start timestep kper="67" kstp="20" mode="normal"


end timestep


start timestep kper="67" kstp="21" mode="normal"


end timestep


start timestep kper="67" kstp="22" mode="normal"


end timestep


start timestep kper="67" kstp="23" mode="normal"


end timestep


start timestep kper="67" kstp="24" mode="normal"


end timestep


start timestep kper="67" kstp="25" mode="normal"


end timestep


start timestep kper="67" kstp="26" mode="normal"


end timestep


start timestep kper="67" kstp="27" mode="normal"


end timestep


start timestep kper="67" kstp="28" mode="normal"


end timestep


start timestep kper="67" kstp="29" mode="normal"


end timestep


start timestep kper="67" kstp="30" mode="normal"


end timestep


start timestep kper="67" kstp="31" mode="normal"

 UBDSV1 SAVING           STO-SS ON UNIT   1487 AT TIME STEP     31, STRESS PERIOD     67
 UBDSV1 SAVING           STO-SY ON UNIT   1487 AT TIME STEP     31, STRESS PERIOD     67
 UBDSV1 SAVING     FLOW-JA-FACE ON UNIT   1487 AT TIME STEP     31, STRESS PERIOD     67
 UBDSV06 SAVING              DRN IN MODEL DC_MF6           PACKAGE DC_MF6          CONNECTED TO MODEL DC_MF6           PACKAGE DRN              ON UNIT   1487 AT TIME STEP     31, STRESS PERIOD     67
 UBDSV06 SAVING              RIV IN MODEL DC_MF6           PACKAGE DC_MF6          CONNECTED TO MODEL DC_MF6           PACKAGE RIV              ON UNIT   1487 AT TIME STEP     31, STRESS PERIOD     67
 UBDSV06 SAVING              GHB IN MODEL DC_MF6           PACKAGE DC_MF6          CONNECTED TO MODEL DC_MF6           PACKAGE GHB              ON UNIT   1487 AT TIME STEP     31, STRESS PERIOD     67
 UBDSV06 SAVING              RCH IN MODEL DC_MF6           PACKAGE DC_MF6          CONNECTED TO MODEL DC_MF6           PACKAGE RCH              ON UNIT   1487 AT TIME STEP     31, STRESS PERIOD     67
 UBDSV06 SAVING              CHD IN MODEL DC_MF6           PACKAGE DC_MF6          CONNECTED TO MODEL DC_MF6           PACKAGE CHD              ON UNIT   1487 AT TIME STEP     31, STRESS PERIOD     67
 UBDSV06 SAVING        UZF-GWRCH IN MODEL DC_MF6           PACKAGE DC_MF6          CONNECTED TO MODEL DC_MF6           PACKAGE UZF              ON UNIT   1487 AT TIME STEP     31, STRESS PERIOD     67
 UBDSV06 SAVING          UZF-GWD IN MODEL DC_MF6           PACKAGE DC_MF6          CONNECTED TO MODEL DC_MF6           PACKAGE UZF              ON UNIT   1487 AT TIME STEP     31, STRESS PERIOD     67

 HEAD WILL BE SAVED ON UNIT 1488 AT END OF TIME STEP   31, STRESS PERIOD   67


  UZF BUDGET FOR ENTIRE MODEL AT END OF TIME STEP   31, STRESS PERIOD  67
  ------------------------------------------------------------------------------

     CUMULATIVE UZF      L**3       RATES FOR THIS TIME STEP      L**3/T
     ------------------                 ------------------------

           IN:                                      IN:
           ---                                      ---
                 GWF =           0.0000                   GWF =           0.0000
        INFILTRATION =   104901275.4045          INFILTRATION =      879910.9041
             REJ-INF =           0.0000               REJ-INF =           0.0000
             STORAGE =   337713990.9060               STORAGE =           0.0000

            TOTAL IN =   442615266.3105              TOTAL IN =      879910.9041

          OUT:                                     OUT:
          ----                                     ----
                 GWF =   138541716.8824                   GWF =       21661.4300
        INFILTRATION =           0.0000          INFILTRATION =           0.0000
             REJ-INF =      414977.0634               REJ-INF =        3350.9612
             STORAGE =    79936043.9095               STORAGE =      818622.4050

           TOTAL OUT =   218892737.8554             TOTAL OUT =      843634.7962

            IN - OUT =   223722528.4551              IN - OUT =       36276.1079

 PERCENT DISCREPANCY =          67.64     PERCENT DISCREPANCY =           4.21



  VOLUME BUDGET FOR ENTIRE MODEL AT END OF TIME STEP   31, STRESS PERIOD  67
  ---------------------------------------------------------------------------------------------------

     CUMULATIVE VOLUME      L**3       RATES FOR THIS TIME STEP      L**3/T          PACKAGE NAME    
     ------------------                 ------------------------                     ----------------

           IN:                                      IN:
           ---                                      ---
              STO-SS =     1298876.8625                STO-SS =         452.3095     STORAGE         
              STO-SY =    60475686.5826                STO-SY =       21420.8100     STORAGE         
                 DRN =           0.0000                   DRN =           0.0000     DRN             
                 RIV =     3569581.8876                   RIV =        7761.3338     RIV             
                 GHB =    77033711.6284                   GHB =       37952.4084     GHB             
                 RCH =      898227.8343                   RCH =        7534.3266     RCH             
                 CHD =           0.0000                   CHD =           0.0000     CHD             
           UZF-GWRCH =   138541716.8824             UZF-GWRCH =       21661.4300     UZF             
             UZF-GWD =           0.0000               UZF-GWD =           0.0000     UZF             

            TOTAL IN =   281817801.6778              TOTAL IN =       96782.6181

          OUT:                                     OUT:
          ----                                     ----
              STO-SS =     2228568.1542                STO-SS =        1955.6934     STORAGE         
              STO-SY =   104353415.1720                STO-SY =       13115.8298     STORAGE         
                 DRN =    68087680.0916                   DRN =       33241.0378     DRN             
                 RIV =     5763758.0297                   RIV =        2040.2371     RIV             
                 GHB =     3684076.4528                   GHB =        1792.7340     GHB             
                 RCH =           0.0000                   RCH =           0.0000     RCH             
                 CHD =      376409.7977                   CHD =         188.1429     CHD             
           UZF-GWRCH =           0.0000             UZF-GWRCH =           0.0000     UZF             
             UZF-GWD =    97317265.9272               UZF-GWD =       44448.9208     UZF             

           TOTAL OUT =   281811173.6252             TOTAL OUT =       96782.5959

            IN - OUT =        6628.0526              IN - OUT =       2.2272E-02

 PERCENT DISCREPANCY =           0.00     PERCENT DISCREPANCY =           0.00




         TIME SUMMARY AT END OF TIME STEP   31 IN STRESS PERIOD   67
                    SECONDS     MINUTES      HOURS       DAYS        YEARS
                    -----------------------------------------------------------
   TIME STEP LENGTH  86400.      1440.0      24.000      1.0000     2.73785E-03
 STRESS PERIOD TIME 2.67840E+06  44640.      744.00      31.000     8.48734E-02
         TOTAL TIME 1.76083E+08 2.93472E+06  48912.      2038.0      5.5797    


end timestep


start timestep kper="68" kstp="1" mode="normal"


 BEGIN READING OUTPUT CONTROL FOR STRESS PERIOD 68
      THE LAST TIME STEP WILL BE SAVED
      THE LAST TIME STEP WILL BE SAVED
      THE LAST TIME STEP WILL BE PRINTED

 END READING OUTPUT CONTROL FOR STRESS PERIOD 68


 STRESS PERIOD 68 IS TRANSIENT


 REUSING DRNS FROM LAST STRESS PERIOD

 REUSING RIVS FROM LAST STRESS PERIOD

 REUSING GHBS FROM LAST STRESS PERIOD

 REUSING RCHS FROM LAST STRESS PERIOD

 REUSING CHDS FROM LAST STRESS PERIOD

 REUSING UZFS FROM LAST STRESS PERIOD

end timestep


start timestep kper="68" kstp="2" mode="normal"


end timestep


start timestep kper="68" kstp="3" mode="normal"


end timestep


start timestep kper="68" kstp="4" mode="normal"


end timestep


start timestep kper="68" kstp="5" mode="normal"


end timestep


start timestep kper="68" kstp="6" mode="normal"


end timestep


start timestep kper="68" kstp="7" mode="normal"


end timestep


start timestep kper="68" kstp="8" mode="normal"


end timestep


start timestep kper="68" kstp="9" mode="normal"


end timestep


start timestep kper="68" kstp="10" mode="normal"


end timestep


start timestep kper="68" kstp="11" mode="normal"


end timestep


start timestep kper="68" kstp="12" mode="normal"


end timestep


start timestep kper="68" kstp="13" mode="normal"


end timestep


start timestep kper="68" kstp="14" mode="normal"


end timestep


start timestep kper="68" kstp="15" mode="normal"


end timestep


start timestep kper="68" kstp="16" mode="normal"


end timestep


start timestep kper="68" kstp="17" mode="normal"


end timestep


start timestep kper="68" kstp="18" mode="normal"


end timestep


start timestep kper="68" kstp="19" mode="normal"


end timestep


start timestep kper="68" kstp="20" mode="normal"


end timestep


start timestep kper="68" kstp="21" mode="normal"


end timestep


start timestep kper="68" kstp="22" mode="normal"


end timestep


start timestep kper="68" kstp="23" mode="normal"


end timestep


start timestep kper="68" kstp="24" mode="normal"


end timestep


start timestep kper="68" kstp="25" mode="normal"


end timestep


start timestep kper="68" kstp="26" mode="normal"


end timestep


start timestep kper="68" kstp="27" mode="normal"


end timestep


start timestep kper="68" kstp="28" mode="normal"


end timestep


start timestep kper="68" kstp="29" mode="normal"


end timestep


start timestep kper="68" kstp="30" mode="normal"


end timestep


start timestep kper="68" kstp="31" mode="normal"

 UBDSV1 SAVING           STO-SS ON UNIT   1487 AT TIME STEP     31, STRESS PERIOD     68
 UBDSV1 SAVING           STO-SY ON UNIT   1487 AT TIME STEP     31, STRESS PERIOD     68
 UBDSV1 SAVING     FLOW-JA-FACE ON UNIT   1487 AT TIME STEP     31, STRESS PERIOD     68
 UBDSV06 SAVING              DRN IN MODEL DC_MF6           PACKAGE DC_MF6          CONNECTED TO MODEL DC_MF6           PACKAGE DRN              ON UNIT   1487 AT TIME STEP     31, STRESS PERIOD     68
 UBDSV06 SAVING              RIV IN MODEL DC_MF6           PACKAGE DC_MF6          CONNECTED TO MODEL DC_MF6           PACKAGE RIV              ON UNIT   1487 AT TIME STEP     31, STRESS PERIOD     68
 UBDSV06 SAVING              GHB IN MODEL DC_MF6           PACKAGE DC_MF6          CONNECTED TO MODEL DC_MF6           PACKAGE GHB              ON UNIT   1487 AT TIME STEP     31, STRESS PERIOD     68
 UBDSV06 SAVING              RCH IN MODEL DC_MF6           PACKAGE DC_MF6          CONNECTED TO MODEL DC_MF6           PACKAGE RCH              ON UNIT   1487 AT TIME STEP     31, STRESS PERIOD     68
 UBDSV06 SAVING              CHD IN MODEL DC_MF6           PACKAGE DC_MF6          CONNECTED TO MODEL DC_MF6           PACKAGE CHD              ON UNIT   1487 AT TIME STEP     31, STRESS PERIOD     68
 UBDSV06 SAVING        UZF-GWRCH IN MODEL DC_MF6           PACKAGE DC_MF6          CONNECTED TO MODEL DC_MF6           PACKAGE UZF              ON UNIT   1487 AT TIME STEP     31, STRESS PERIOD     68
 UBDSV06 SAVING          UZF-GWD IN MODEL DC_MF6           PACKAGE DC_MF6          CONNECTED TO MODEL DC_MF6           PACKAGE UZF              ON UNIT   1487 AT TIME STEP     31, STRESS PERIOD     68

 HEAD WILL BE SAVED ON UNIT 1488 AT END OF TIME STEP   31, STRESS PERIOD   68


  UZF BUDGET FOR ENTIRE MODEL AT END OF TIME STEP   31, STRESS PERIOD  68
  ------------------------------------------------------------------------------

     CUMULATIVE UZF      L**3       RATES FOR THIS TIME STEP      L**3/T
     ------------------                 ------------------------

           IN:                                      IN:
           ---                                      ---
                 GWF =           0.0000                   GWF =           0.0000
        INFILTRATION =   106091972.2065          INFILTRATION =           0.0000
             REJ-INF =           0.0000               REJ-INF =           0.0000
             STORAGE =   339090359.6710               STORAGE =       56048.6504

            TOTAL IN =   445182331.8776              TOTAL IN =       56048.6504

          OUT:                                     OUT:
          ----                                     ----
                 GWF =   139214863.2938                   GWF =       21830.7672
        INFILTRATION =           0.0000          INFILTRATION =           0.0000
             REJ-INF =      419513.7571               REJ-INF =           0.0000
             STORAGE =    80757517.6204               STORAGE =          19.7170

           TOTAL OUT =   220391894.6713             TOTAL OUT =       21850.4841

            IN - OUT =   224790437.2063              IN - OUT =       34198.1663

 PERCENT DISCREPANCY =          67.55     PERCENT DISCREPANCY =          87.80



  VOLUME BUDGET FOR ENTIRE MODEL AT END OF TIME STEP   31, STRESS PERIOD  68
  ---------------------------------------------------------------------------------------------------

     CUMULATIVE VOLUME      L**3       RATES FOR THIS TIME STEP      L**3/T          PACKAGE NAME    
     ------------------                 ------------------------                     ----------------

           IN:                                      IN:
           ---                                      ---
              STO-SS =     1317607.5013                STO-SS =         522.1526     STORAGE         
              STO-SY =    61203413.2795                STO-SY =       23919.9788     STORAGE         
                 DRN =           0.0000                   DRN =           0.0000     DRN             
                 RIV =     3623884.4197                   RIV =           0.0000     RIV             
                 GHB =    78210315.3459                   GHB =       37957.5221     GHB             
                 RCH =      908423.2967                   RCH =           0.0000     RCH             
                 CHD =           0.0000                   CHD =           0.0000     CHD             
           UZF-GWRCH =   139214863.2938             UZF-GWRCH =       21830.7672     UZF             
             UZF-GWD =           0.0000               UZF-GWD =           0.0000     UZF             

            TOTAL IN =   284478507.1368              TOTAL IN =       84230.4208

          OUT:                                     OUT:
          ----                                     ----
              STO-SS =     2232343.3629                STO-SS =          34.2249     STORAGE         
              STO-SY =   104461608.3013                STO-SY =        1939.9635     STORAGE         
                 DRN =    69118036.1908                   DRN =       33233.5695     DRN             
                 RIV =     5844142.4673                   RIV =        2747.0491     RIV             
                 GHB =     3739471.3015                   GHB =        1782.1534     GHB             
                 RCH =           0.0000                   RCH =           0.0000     RCH             
                 CHD =      382088.6005                   CHD =         182.5083     CHD             
           UZF-GWRCH =           0.0000             UZF-GWRCH =           0.0000     UZF             
             UZF-GWD =    98694356.3539               UZF-GWD =       44318.8993     UZF             

           TOTAL OUT =   284472046.5781             TOTAL OUT =       84238.3679

            IN - OUT =        6460.5588              IN - OUT =          -7.9471

 PERCENT DISCREPANCY =           0.00     PERCENT DISCREPANCY =          -0.01




         TIME SUMMARY AT END OF TIME STEP   31 IN STRESS PERIOD   68
                    SECONDS     MINUTES      HOURS       DAYS        YEARS
                    -----------------------------------------------------------
   TIME STEP LENGTH  86400.      1440.0      24.000      1.0000     2.73785E-03
 STRESS PERIOD TIME 2.67840E+06  44640.      744.00      31.000     8.48734E-02
         TOTAL TIME 1.78762E+08 2.97936E+06  49656.      2069.0      5.6646    


end timestep

