                                   MODFLOW 6
                U.S. GEOLOGICAL SURVEY MODULAR HYDROLOGIC MODEL
                          GROUNDWATER FLOW MODEL (GWF)
                            VERSION 6.1.1 06/12/2020

  MODFLOW 6 compiled Jul 21 2020 17:41:19 with GFORTRAN compiler (ver. 8.1.0)

This software has been approved for release by the U.S. Geological 
Survey (USGS). Although the software has been subjected to rigorous 
review, the USGS reserves the right to update the software as needed 
pursuant to further analysis and review. No warranty, expressed or 
implied, is made by the USGS or the U.S. Government as to the 
functionality of the software and related material nor shall the 
fact of release constitute any such warranty. Furthermore, the 
software is released on condition that neither the USGS nor the U.S. 
Government shall be held liable for any damages resulting from its 
authorized or unauthorized use. Also refer to the USGS Water 
Resources Software User Rights Notice for complete use, copyright, 
and distribution information.


MODFLOW was compiled using uniform precision.
Precision of REAL variables: 15


 OPENED DC_MF6.uzf
 FILE TYPE:UZF6                   UNIT 1005   STATUS:OLD                 
 FORMAT:FORMATTED              ACCESS:SEQUENTIAL          
 ACTION:READ                


 OPENED DC_MF6.ic
 FILE TYPE:IC6                    UNIT 1006   STATUS:OLD                 
 FORMAT:FORMATTED              ACCESS:SEQUENTIAL          
 ACTION:READ                


 OPENED DC_MF6.gnc
 FILE TYPE:GNC6                   UNIT 1007   STATUS:OLD                 
 FORMAT:FORMATTED              ACCESS:SEQUENTIAL          
 ACTION:READ                


 OPENED DC_MF6.disv
 FILE TYPE:DISV6                  UNIT 1008   STATUS:OLD                 
 FORMAT:FORMATTED              ACCESS:SEQUENTIAL          
 ACTION:READ                


 OPENED DC_MF6.sto
 FILE TYPE:STO6                   UNIT 1009   STATUS:OLD                 
 FORMAT:FORMATTED              ACCESS:SEQUENTIAL          
 ACTION:READ                


 OPENED DC_MF6.npf
 FILE TYPE:NPF6                   UNIT 1010   STATUS:OLD                 
 FORMAT:FORMATTED              ACCESS:SEQUENTIAL          
 ACTION:READ                


 OPENED DC_MF6.ghb
 FILE TYPE:GHB6                   UNIT 1011   STATUS:OLD                 
 FORMAT:FORMATTED              ACCESS:SEQUENTIAL          
 ACTION:READ                


 OPENED DC_MF6.chd
 FILE TYPE:CHD6                   UNIT 1012   STATUS:OLD                 
 FORMAT:FORMATTED              ACCESS:SEQUENTIAL          
 ACTION:READ                


 OPENED DC_MF6.drn
 FILE TYPE:DRN6                   UNIT 1013   STATUS:OLD                 
 FORMAT:FORMATTED              ACCESS:SEQUENTIAL          
 ACTION:READ                


 OPENED DC_MF6.oc
 FILE TYPE:OC6                    UNIT 1014   STATUS:OLD                 
 FORMAT:FORMATTED              ACCESS:SEQUENTIAL          
 ACTION:READ                


 OPENED DC_MF6.riv
 FILE TYPE:RIV6                   UNIT 1015   STATUS:OLD                 
 FORMAT:FORMATTED              ACCESS:SEQUENTIAL          
 ACTION:READ                


 OPENED DC_MF6.rch
 FILE TYPE:RCH6                   UNIT 1016   STATUS:OLD                 
 FORMAT:FORMATTED              ACCESS:SEQUENTIAL          
 ACTION:READ                

 NAMEFILE OPTIONS:
    FLOWS WILL BE SAVED TO BUDGET FILE SPECIFIED IN OUTPUT CONTROL
    NEWTON-RAPHSON method enabled for the model.

 DISV -- VERTEX GRID DISCRETIZATION PACKAGE, VERSION 1 : 12/23/2015 - INPUT READ FROM UNIT 1008



 PROCESSING DISCRETIZATION OPTIONS
    MODEL LENGTH UNIT IS METERS
    XORIGIN SPECIFIED AS     303000.000000000    
    YORIGIN SPECIFIED AS     3306000.00000000    
    ANGROT SPECIFIED AS     0.00000000000000    
 END OF DISCRETIZATION OPTIONS

 PROCESSING DISCRETIZATION DIMENSIONS
   NLAY = 7
   NCPL = 12347
   NVERT = 12916
 END OF DISCRETIZATION DIMENSIONS

 PROCESSING GRIDDATA
 END PROCESSING GRIDDATA

 PROCESSING VERTICES
   SUCCESSFULLY READ 12916 (X,Y) COORDINATES
   MINIMUM X COORDINATE =     0.00000000000000    
   MAXIMUM X COORDINATE =     31000.0000000000    
   MINIMUM Y COORDINATE =     1500.00000000000    
   MAXIMUM Y COORDINATE =     36000.0000000000    
 END PROCESSING VERTICES

 PROCESSING CELL2D
   SUCCESSFULLY READ 12347 CELL2D INFORMATION ENTRIES
   MINIMUM X CELL CENTER =     250.000000000000    
   MAXIMUM X CELL CENTER =     30500.0000000000    
   MINIMUM Y CELL CENTER =     1562.50000000000    
   MAXIMUM Y CELL CENTER =     35500.0000000000    
   MAXIMUM NUMBER OF CELL2D VERTICES IS 8 FOR CELL 6134
 END PROCESSING VERTICES

 THE SPECIFIED IDOMAIN RESULTS IN A REDUCED NUMBER OF CELLS.
 NUMBER OF USER NODES:   86429
 NUMBER OF NODES IN SOLUTION:   56126



 NPF -- NODE PROPERTY FLOW PACKAGE, VERSION 1, 3/30/2015 INPUT READ FROM UNIT 1010


 PROCESSING NPF OPTIONS
    CELL-BY-CELL FLOW INFORMATION WILL BE SAVED TO BINARY FILE WHENEVER ICBCFL IS NOT ZERO.
 END OF NPF OPTIONS
 PROCESSING GNC OPTIONS
 END OF GNC OPTIONS
 PROCESSING GNC DIMENSIONS
    NUMGNC =    5475
    NUMAPHAJ =       1
 END OF GNC DIMENSIONS
 PROCESSING GNCDATA
 END OF GNCDATA

 DRN   -- DRN PACKAGE, VERSION 8, 2/22/2014 INPUT READ FROM UNIT 1013

 PROCESSING DRN OPTIONS
    DRN BOUNDARIES HAVE NAMES IN LAST COLUMN.
    FLOWS WILL BE SAVED TO BUDGET FILE SPECIFIED IN OUTPUT CONTROL

 OPENED DC_MF6.drn.obs
 FILE TYPE:OBS   UNIT 1018   STATUS:OLD                 
 FORMAT:FORMATTED              ACCESS:SEQUENTIAL          
 ACTION:READ                

 END OF DRN OPTIONS

 PROCESSING DRN DIMENSIONS
    MAXBOUND =       5
 END OF DRN DIMENSIONS

 RIV   -- RIV PACKAGE, VERSION 8, 2/22/2014 INPUT READ FROM UNIT 1015

 PROCESSING RIV OPTIONS
    RIV BOUNDARIES HAVE NAMES IN LAST COLUMN.
    FLOWS WILL BE SAVED TO BUDGET FILE SPECIFIED IN OUTPUT CONTROL

 OPENED DC_MF6.riv.obs
 FILE TYPE:OBS   UNIT 1019   STATUS:OLD                 
 FORMAT:FORMATTED              ACCESS:SEQUENTIAL          
 ACTION:READ                

 END OF RIV OPTIONS

 PROCESSING RIV DIMENSIONS
    MAXBOUND =     105
 END OF RIV DIMENSIONS

 GHB   -- GHB PACKAGE, VERSION 8, 2/22/2014 INPUT READ FROM UNIT 1011

 PROCESSING GHB OPTIONS
    GHB BOUNDARIES HAVE NAMES IN LAST COLUMN.
    FLOWS WILL BE SAVED TO BUDGET FILE SPECIFIED IN OUTPUT CONTROL

 OPENED DC_MF6.ghb.obs
 FILE TYPE:OBS   UNIT 1020   STATUS:OLD                 
 FORMAT:FORMATTED              ACCESS:SEQUENTIAL          
 ACTION:READ                

 END OF GHB OPTIONS

 PROCESSING GHB DIMENSIONS
    MAXBOUND =     836
 END OF GHB DIMENSIONS

 RCH   -- RCH PACKAGE, VERSION 8, 2/22/2014 INPUT READ FROM UNIT 1016

 PROCESSING RCH OPTIONS
    RCH BOUNDARIES HAVE NAMES IN LAST COLUMN.
    FLOWS WILL BE SAVED TO BUDGET FILE SPECIFIED IN OUTPUT CONTROL
    TIME-SERIES DATA WILL BE READ FROM FILE: rch_infil_ts.ts

 OPENED DC_MF6.rch.obs
 FILE TYPE:OBS   UNIT 1022   STATUS:OLD                 
 FORMAT:FORMATTED              ACCESS:SEQUENTIAL          
 ACTION:READ                

 END OF RCH OPTIONS

 PROCESSING RCH DIMENSIONS
    MAXBOUND =     464
 END OF RCH DIMENSIONS

 CHD   -- CHD PACKAGE, VERSION 8, 2/22/2014 INPUT READ FROM UNIT 1012

 PROCESSING CHD OPTIONS
    CHD BOUNDARIES HAVE NAMES IN LAST COLUMN.
    FLOWS WILL BE SAVED TO BUDGET FILE SPECIFIED IN OUTPUT CONTROL

 OPENED DC_MF6.chd.obs
 FILE TYPE:OBS   UNIT 1023   STATUS:OLD                 
 FORMAT:FORMATTED              ACCESS:SEQUENTIAL          
 ACTION:READ                

 END OF CHD OPTIONS

 PROCESSING CHD DIMENSIONS
    MAXBOUND =       4
 END OF CHD DIMENSIONS

 UZF   -- UZF CELLS PACKAGE, VERSION 8, 2/22/2014 INPUT READ FROM UNIT 1005

 PROCESSING UZF CELLS OPTIONS
    UZF CELLS BOUNDARIES HAVE NAMES IN LAST COLUMN.
    FLOWS WILL BE SAVED TO BUDGET FILE SPECIFIED IN OUTPUT CONTROL

 OPENED DC_MF6.uzf.obs
 FILE TYPE:OBS   UNIT 1024   STATUS:OLD                 
 FORMAT:FORMATTED              ACCESS:SEQUENTIAL          
 ACTION:READ                

    GROUNDWATER DISCHARGE TO LAND SURFACE WILL BE SIMULATED.
 END OF UZF CELLS OPTIONS

 PROCESSING UZF CELLS DIMENSIONS
    NUZFCELLS = 11536
    NTRAILWAVES = 7
    NTRAILSETS = 250
 END OF UZF CELLS DIMENSIONS

 PROCESSING UZF CELLS PACKAGEDATA

 IC -- INITIAL CONDITIONS PACKAGE, VERSION 8, 3/28/2015 INPUT READ FROM UNIT 1006
 PROCESSING GRIDDATA
 END PROCESSING GRIDDATA
 PROCESSING GRIDDATA

                ICELLTYPE = 1 FOR LAYER 1

                ICELLTYPE = 1 FOR LAYER 2

                ICELLTYPE = 1 FOR LAYER 3

                ICELLTYPE = 1 FOR LAYER 4

                ICELLTYPE = 1 FOR LAYER 5

                ICELLTYPE = 1 FOR LAYER 6

                ICELLTYPE = 1 FOR LAYER 7
 K22 not provided.  Assuming K22 = K.
 END PROCESSING GRIDDATA

 STO -- STORAGE PACKAGE, VERSION 1, 5/19/2014 INPUT READ FROM UNIT 1009


 PROCESSING STORAGE OPTIONS
    CELL-BY-CELL FLOW INFORMATION WILL BE SAVED TO BINARY FILE WHENEVER ICBCFL IS NOT ZERO.
 END OF STORAGE OPTIONS
 PROCESSING GRIDDATA

                 ICONVERT = 1
 END PROCESSING GRIDDATA
    BINARY GRID INFORMATION WILL BE WRITTEN TO:
      UNIT NUMBER: 1025
      FILE NAME: DC_MF6.disv.grb

 OPENED DC_MF6.disv.grb
 FILE TYPE:DATA(BINARY)   UNIT 1025   STATUS:REPLACE             
 FORMAT:UNFORMATTED            ACCESS:STREAM              
 ACTION:READWRITE           

      THE LAST TIME STEP WILL BE PRINTED
      THE LAST TIME STEP WILL BE PRINTED

 PROCESSING OC OPTIONS

    BUDGET INFORMATION WILL BE WRITTEN TO:
      UNIT NUMBER: 1026
      FILE NAME: DC_MF6.cbb

 OPENED DC_MF6.cbb
 FILE TYPE:DATA(BINARY)   UNIT 1026   STATUS:REPLACE             
 FORMAT:UNFORMATTED            ACCESS:STREAM              
 ACTION:READWRITE           

    HEAD INFORMATION WILL BE WRITTEN TO:
      UNIT NUMBER: 1027
      FILE NAME: DC_MF6.hds

 OPENED DC_MF6.hds
 FILE TYPE:DATA(BINARY)   UNIT 1027   STATUS:REPLACE             
 FORMAT:UNFORMATTED            ACCESS:STREAM              
 ACTION:READWRITE           

 END OF OC OPTIONS

The observation utility is active for "DRN"

Processing observation options:



The observation utility is active for "RIV"

Processing observation options:



The observation utility is active for "GHB"

Processing observation options:



The observation utility is active for "RCH"

Processing observation options:



The observation utility is active for "CHD"

Processing observation options:



The observation utility is active for "UZF"

Processing observation options:



start timestep kper="1" kstp="1" mode="normal"


 BEGIN READING OUTPUT CONTROL FOR STRESS PERIOD 1
      THE LAST TIME STEP WILL BE SAVED
      THE FOLLOWING STEPS WILL BE PRINTED: 1 2 3 4 5 6 7 8 9 
      THE LAST TIME STEP WILL BE SAVED
      THE LAST TIME STEP WILL BE PRINTED

 END READING OUTPUT CONTROL FOR STRESS PERIOD 1


 PROCESSING STORAGE PERIOD DATA
 END PROCESSING STORAGE PERIOD DATA


 STRESS PERIOD 1 IS TRANSIENT



  UZF BUDGET FOR ENTIRE MODEL AT END OF TIME STEP    1, STRESS PERIOD   1
  ------------------------------------------------------------------------------

     CUMULATIVE UZF      L**3       RATES FOR THIS TIME STEP      L**3/T
     ------------------                 ------------------------

           IN:                                      IN:
           ---                                      ---
                 GWF =           0.0000                   GWF =           0.0000
        INFILTRATION =        1473.0925          INFILTRATION =        1473.0925
             REJ-INF =           0.0000               REJ-INF =           0.0000
             STORAGE =    48283710.5891               STORAGE =    48283710.5891

            TOTAL IN =    48285183.6816              TOTAL IN =    48285183.6816

          OUT:                                     OUT:
          ----                                     ----
                 GWF =    22724997.0767                   GWF =    22724997.0767
        INFILTRATION =           0.0000          INFILTRATION =           0.0000
             REJ-INF =         136.5518               REJ-INF =         136.5518
             STORAGE =           1.1776               STORAGE =           1.1776

           TOTAL OUT =    22725134.8061             TOTAL OUT =    22725134.8061

            IN - OUT =    25560048.8756              IN - OUT =    25560048.8756

 PERCENT DISCREPANCY =          71.99     PERCENT DISCREPANCY =          71.99



  VOLUME BUDGET FOR ENTIRE MODEL AT END OF TIME STEP    1, STRESS PERIOD   1
  ---------------------------------------------------------------------------------------------------

     CUMULATIVE VOLUME      L**3       RATES FOR THIS TIME STEP      L**3/T          PACKAGE NAME    
     ------------------                 ------------------------                     ----------------

           IN:                                      IN:
           ---                                      ---
              STO-SS =       77679.2703                STO-SS =       77679.2703     STORAGE         
              STO-SY =      430952.6182                STO-SY =      430952.6182     STORAGE         
                 DRN =           0.0000                   DRN =           0.0000     DRN             
                 RIV =           0.0000                   RIV =           0.0000     RIV             
                 GHB =       41088.6322                   GHB =       41088.6322     GHB             
                 RCH =           0.0000                   RCH =           0.0000     RCH             
                 CHD =           0.0000                   CHD =           0.0000     CHD             
           UZF-GWRCH =    22724997.0767             UZF-GWRCH =    22724997.0767     UZF             
             UZF-GWD =           0.0000               UZF-GWD =           0.0000     UZF             

            TOTAL IN =    23274717.5974              TOTAL IN =    23274717.5974

          OUT:                                     OUT:
          ----                                     ----
              STO-SS =      449282.4646                STO-SS =      449282.4646     STORAGE         
              STO-SY =    22299270.7559                STO-SY =    22299270.7559     STORAGE         
                 DRN =      358064.6175                   DRN =      358064.6175     DRN             
                 RIV =          18.9070                   RIV =          18.9070     RIV             
                 GHB =       22725.1519                   GHB =       22725.1519     GHB             
                 RCH =           0.0000                   RCH =           0.0000     RCH             
                 CHD =         202.2845                   CHD =         202.2845     CHD             
           UZF-GWRCH =           0.0000             UZF-GWRCH =           0.0000     UZF             
             UZF-GWD =      145800.0564               UZF-GWD =      145800.0564     UZF             

           TOTAL OUT =    23275364.2377             TOTAL OUT =    23275364.2377

            IN - OUT =        -646.6403              IN - OUT =        -646.6403

 PERCENT DISCREPANCY =          -0.00     PERCENT DISCREPANCY =          -0.00




         TIME SUMMARY AT END OF TIME STEP    1 IN STRESS PERIOD    1
                    SECONDS     MINUTES      HOURS       DAYS        YEARS
                    -----------------------------------------------------------
   TIME STEP LENGTH  86400.      1440.0      24.000      1.0000     2.73785E-03
 STRESS PERIOD TIME  86400.      1440.0      24.000      1.0000     2.73785E-03
         TOTAL TIME  86400.      1440.0      24.000      1.0000     2.73785E-03


end timestep


start timestep kper="1" kstp="2" mode="normal"



  UZF BUDGET FOR ENTIRE MODEL AT END OF TIME STEP    2, STRESS PERIOD   1
  ------------------------------------------------------------------------------

     CUMULATIVE UZF      L**3       RATES FOR THIS TIME STEP      L**3/T
     ------------------                 ------------------------

           IN:                                      IN:
           ---                                      ---
                 GWF =           0.0000                   GWF =           0.0000
        INFILTRATION =        3894.7606          INFILTRATION =        2421.6681
             REJ-INF =           0.0000               REJ-INF =           0.0000
             STORAGE =    83922348.4007               STORAGE =    35638637.8116

            TOTAL IN =    83926243.1613              TOTAL IN =    35641059.4796

          OUT:                                     OUT:
          ----                                     ----
                 GWF =    37538092.9510                   GWF =    14813095.8743
        INFILTRATION =           0.0000          INFILTRATION =           0.0000
             REJ-INF =         569.0783               REJ-INF =         432.5266
             STORAGE =         328.4497               STORAGE =         327.2721

           TOTAL OUT =    37538990.4790             TOTAL OUT =    14813855.6730

            IN - OUT =    46387252.6822              IN - OUT =    20827203.8067

 PERCENT DISCREPANCY =          76.38     PERCENT DISCREPANCY =          82.56



  VOLUME BUDGET FOR ENTIRE MODEL AT END OF TIME STEP    2, STRESS PERIOD   1
  ---------------------------------------------------------------------------------------------------

     CUMULATIVE VOLUME      L**3       RATES FOR THIS TIME STEP      L**3/T          PACKAGE NAME    
     ------------------                 ------------------------                     ----------------

           IN:                                      IN:
           ---                                      ---
              STO-SS =      122479.3840                STO-SS =       44800.1138     STORAGE         
              STO-SY =      872048.9158                STO-SY =      441096.2976     STORAGE         
                 DRN =           0.0000                   DRN =           0.0000     DRN             
                 RIV =           0.0000                   RIV =           0.0000     RIV             
                 GHB =       82168.2613                   GHB =       41079.6291     GHB             
                 RCH =           0.0000                   RCH =           0.0000     RCH             
                 CHD =           0.0000                   CHD =           0.0000     CHD             
           UZF-GWRCH =    37538092.9510             UZF-GWRCH =    14813095.8743     UZF             
             UZF-GWD =           0.0000               UZF-GWD =           0.0000     UZF             

            TOTAL IN =    38614789.5122              TOTAL IN =    15340071.9148

          OUT:                                     OUT:
          ----                                     ----
              STO-SS =      694160.6939                STO-SS =      244878.2293     STORAGE         
              STO-SY =    36861774.0745                STO-SY =    14562503.3186     STORAGE         
                 DRN =      719998.8202                   DRN =      361934.2027     DRN             
                 RIV =          37.8411                   RIV =          18.9341     RIV             
                 GHB =       45491.1032                   GHB =       22765.9513     GHB             
                 RCH =           0.0000                   RCH =           0.0000     RCH             
                 CHD =         404.7247                   CHD =         202.4403     CHD             
           UZF-GWRCH =           0.0000             UZF-GWRCH =           0.0000     UZF             
             UZF-GWD =      294525.0418               UZF-GWD =      148724.9854     UZF             

           TOTAL OUT =    38616392.2994             TOTAL OUT =    15341028.0617

            IN - OUT =       -1602.7873              IN - OUT =        -956.1469

 PERCENT DISCREPANCY =          -0.00     PERCENT DISCREPANCY =          -0.01




         TIME SUMMARY AT END OF TIME STEP    2 IN STRESS PERIOD    1
                    SECONDS     MINUTES      HOURS       DAYS        YEARS
                    -----------------------------------------------------------
   TIME STEP LENGTH  86400.      1440.0      24.000      1.0000     2.73785E-03
 STRESS PERIOD TIME 1.72800E+05  2880.0      48.000      2.0000     5.47570E-03
         TOTAL TIME 1.72800E+05  2880.0      48.000      2.0000     5.47570E-03


end timestep


start timestep kper="1" kstp="3" mode="normal"



  UZF BUDGET FOR ENTIRE MODEL AT END OF TIME STEP    3, STRESS PERIOD   1
  ------------------------------------------------------------------------------

     CUMULATIVE UZF      L**3       RATES FOR THIS TIME STEP      L**3/T
     ------------------                 ------------------------

           IN:                                      IN:
           ---                                      ---
                 GWF =           0.0000                   GWF =           0.0000
        INFILTRATION =        7929.7239          INFILTRATION =        4034.9633
             REJ-INF =           0.0000               REJ-INF =           0.0000
             STORAGE =   114193011.4118               STORAGE =    30270663.0111

            TOTAL IN =   114200941.1357              TOTAL IN =    30274697.9744

          OUT:                                     OUT:
          ----                                     ----
                 GWF =    49467784.4987                   GWF =    11929691.5477
        INFILTRATION =           0.0000          INFILTRATION =           0.0000
             REJ-INF =        1321.4889               REJ-INF =         752.4106
             STORAGE =        1683.4122               STORAGE =        1354.9625

           TOTAL OUT =    49470789.3998             TOTAL OUT =    11931798.9208

            IN - OUT =    64730151.7359              IN - OUT =    18342899.0536

 PERCENT DISCREPANCY =          79.10     PERCENT DISCREPANCY =          86.92



  VOLUME BUDGET FOR ENTIRE MODEL AT END OF TIME STEP    3, STRESS PERIOD   1
  ---------------------------------------------------------------------------------------------------

     CUMULATIVE VOLUME      L**3       RATES FOR THIS TIME STEP      L**3/T          PACKAGE NAME    
     ------------------                 ------------------------                     ----------------

           IN:                                      IN:
           ---                                      ---
              STO-SS =      161284.5634                STO-SS =       38805.1794     STORAGE         
              STO-SY =     1314376.9109                STO-SY =      442327.9951     STORAGE         
                 DRN =           0.0000                   DRN =           0.0000     DRN             
                 RIV =           0.0000                   RIV =           0.0000     RIV             
                 GHB =      123234.5150                   GHB =       41066.2537     GHB             
                 RCH =           0.0000                   RCH =           0.0000     RCH             
                 CHD =           0.0000                   CHD =           0.0000     CHD             
           UZF-GWRCH =    49467784.4987             UZF-GWRCH =    11929691.5477     UZF             
             UZF-GWD =           0.0000               UZF-GWD =           0.0000     UZF             

            TOTAL IN =    51066680.4880              TOTAL IN =    12451890.9759

          OUT:                                     OUT:
          ----                                     ----
              STO-SS =      891892.8837                STO-SS =      197732.1899     STORAGE         
              STO-SY =    48594898.8577                STO-SY =    11733124.7832     STORAGE         
                 DRN =     1067005.4558                   DRN =      347006.6356     DRN             
                 RIV =          56.6991                   RIV =          18.8580     RIV             
                 GHB =       68287.2100                   GHB =       22796.1068     GHB             
                 RCH =           0.0000                   RCH =           0.0000     RCH             
                 CHD =         606.6388                   CHD =         201.9140     CHD             
           UZF-GWRCH =           0.0000             UZF-GWRCH =           0.0000     UZF             
             UZF-GWD =      448075.3946               UZF-GWD =      153550.3528     UZF             

           TOTAL OUT =    51070823.1396             TOTAL OUT =    12454430.8402

            IN - OUT =       -4142.6516              IN - OUT =       -2539.8643

 PERCENT DISCREPANCY =          -0.01     PERCENT DISCREPANCY =          -0.02




         TIME SUMMARY AT END OF TIME STEP    3 IN STRESS PERIOD    1
                    SECONDS     MINUTES      HOURS       DAYS        YEARS
                    -----------------------------------------------------------
   TIME STEP LENGTH  86400.      1440.0      24.000      1.0000     2.73785E-03
 STRESS PERIOD TIME 2.59200E+05  4320.0      72.000      3.0000     8.21355E-03
         TOTAL TIME 2.59200E+05  4320.0      72.000      3.0000     8.21355E-03


end timestep


start timestep kper="1" kstp="4" mode="normal"



  UZF BUDGET FOR ENTIRE MODEL AT END OF TIME STEP    4, STRESS PERIOD   1
  ------------------------------------------------------------------------------

     CUMULATIVE UZF      L**3       RATES FOR THIS TIME STEP      L**3/T
     ------------------                 ------------------------

           IN:                                      IN:
           ---                                      ---
                 GWF =           0.0000                   GWF =           0.0000
        INFILTRATION =       13596.5103          INFILTRATION =        5666.7863
             REJ-INF =           0.0000               REJ-INF =           0.0000
             STORAGE =   138274994.0361               STORAGE =    24081982.6244

            TOTAL IN =   138288590.5464              TOTAL IN =    24087649.4107

          OUT:                                     OUT:
          ----                                     ----
                 GWF =    58222780.8525                   GWF =     8754996.3538
        INFILTRATION =           0.0000          INFILTRATION =           0.0000
             REJ-INF =        2423.2692               REJ-INF =        1101.7803
             STORAGE =        4192.4629               STORAGE =        2509.0507

           TOTAL OUT =    58229396.5846             TOTAL OUT =     8758607.1848

            IN - OUT =    80059193.9618              IN - OUT =    15329042.2259

 PERCENT DISCREPANCY =          81.48     PERCENT DISCREPANCY =          93.34



  VOLUME BUDGET FOR ENTIRE MODEL AT END OF TIME STEP    4, STRESS PERIOD   1
  ---------------------------------------------------------------------------------------------------

     CUMULATIVE VOLUME      L**3       RATES FOR THIS TIME STEP      L**3/T          PACKAGE NAME    
     ------------------                 ------------------------                     ----------------

           IN:                                      IN:
           ---                                      ---
              STO-SS =      196315.3843                STO-SS =       35030.8209     STORAGE         
              STO-SY =     1739820.9662                STO-SY =      425444.0553     STORAGE         
                 DRN =           0.0000                   DRN =           0.0000     DRN             
                 RIV =           0.0000                   RIV =           0.0000     RIV             
                 GHB =      164284.3365                   GHB =       41049.8216     GHB             
                 RCH =         759.3732                   RCH =         759.3732     RCH             
                 CHD =           0.0000                   CHD =           0.0000     CHD             
           UZF-GWRCH =    58222780.8525             UZF-GWRCH =     8754996.3538     UZF             
             UZF-GWD =           0.0000               UZF-GWD =           0.0000     UZF             

            TOTAL IN =    60323960.9127              TOTAL IN =     9257280.4247

          OUT:                                     OUT:
          ----                                     ----
              STO-SS =     1042756.9831                STO-SS =      150864.0994     STORAGE         
              STO-SY =    57197256.4904                STO-SY =     8602357.6328     STORAGE         
                 DRN =     1398252.5822                   DRN =      331247.1264     DRN             
                 RIV =          75.6725                   RIV =          18.9734     RIV             
                 GHB =       91101.5224                   GHB =       22814.3124     GHB             
                 RCH =           0.0000                   RCH =           0.0000     RCH             
                 CHD =         808.0747                   CHD =         201.4359     CHD             
           UZF-GWRCH =           0.0000             UZF-GWRCH =           0.0000     UZF             
             UZF-GWD =      598807.8767               UZF-GWD =      150732.4821     UZF             

           TOTAL OUT =    60329059.2020             TOTAL OUT =     9258236.0624

            IN - OUT =       -5098.2893              IN - OUT =        -955.6377

 PERCENT DISCREPANCY =          -0.01     PERCENT DISCREPANCY =          -0.01




         TIME SUMMARY AT END OF TIME STEP    4 IN STRESS PERIOD    1
                    SECONDS     MINUTES      HOURS       DAYS        YEARS
                    -----------------------------------------------------------
   TIME STEP LENGTH  86400.      1440.0      24.000      1.0000     2.73785E-03
 STRESS PERIOD TIME 3.45600E+05  5760.0      96.000      4.0000     1.09514E-02
         TOTAL TIME 3.45600E+05  5760.0      96.000      4.0000     1.09514E-02


end timestep


start timestep kper="1" kstp="5" mode="normal"



  UZF BUDGET FOR ENTIRE MODEL AT END OF TIME STEP    5, STRESS PERIOD   1
  ------------------------------------------------------------------------------

     CUMULATIVE UZF      L**3       RATES FOR THIS TIME STEP      L**3/T
     ------------------                 ------------------------

           IN:                                      IN:
           ---                                      ---
                 GWF =           0.0000                   GWF =           0.0000
        INFILTRATION =       20790.5980          INFILTRATION =        7194.0878
             REJ-INF =           0.0000               REJ-INF =           0.0000
             STORAGE =   156611111.7167               STORAGE =    18336117.6805

            TOTAL IN =   156631902.3147              TOTAL IN =    18343311.7683

          OUT:                                     OUT:
          ----                                     ----
                 GWF =    64545171.1234                   GWF =     6322390.2709
        INFILTRATION =           0.0000          INFILTRATION =           0.0000
             REJ-INF =        3880.6294               REJ-INF =        1457.3602
             STORAGE =        7557.8203               STORAGE =        3365.3574

           TOTAL OUT =    64556609.5731             TOTAL OUT =     6327212.9885

            IN - OUT =    92075292.7416              IN - OUT =    12016098.7798

 PERCENT DISCREPANCY =          83.26     PERCENT DISCREPANCY =          97.41



  VOLUME BUDGET FOR ENTIRE MODEL AT END OF TIME STEP    5, STRESS PERIOD   1
  ---------------------------------------------------------------------------------------------------

     CUMULATIVE VOLUME      L**3       RATES FOR THIS TIME STEP      L**3/T          PACKAGE NAME    
     ------------------                 ------------------------                     ----------------

           IN:                                      IN:
           ---                                      ---
              STO-SS =      228402.3408                STO-SS =       32086.9565     STORAGE         
              STO-SY =     2141477.4014                STO-SY =      401656.4352     STORAGE         
                 DRN =           0.0000                   DRN =           0.0000     DRN             
                 RIV =           0.0000                   RIV =           0.0000     RIV             
                 GHB =      205316.0156                   GHB =       41031.6791     GHB             
                 RCH =        1159.5099                   RCH =         400.1367     RCH             
                 CHD =           0.0000                   CHD =           0.0000     CHD             
           UZF-GWRCH =    64545171.1234             UZF-GWRCH =     6322390.2709     UZF             
             UZF-GWD =           0.0000               UZF-GWD =           0.0000     UZF             

            TOTAL IN =    67121526.3910              TOTAL IN =     6797565.4783

          OUT:                                     OUT:
          ----                                     ----
              STO-SS =     1157930.2857                STO-SS =      115173.3026     STORAGE         
              STO-SY =    63392674.2941                STO-SY =     6195417.8037     STORAGE         
                 DRN =     1715079.6358                   DRN =      316827.0536     DRN             
                 RIV =          94.4143                   RIV =          18.7419     RIV             
                 GHB =      113923.2117                   GHB =       22821.6893     GHB             
                 RCH =           0.0000                   RCH =           0.0000     RCH             
                 CHD =        1008.3753                   CHD =         200.3006     CHD             
           UZF-GWRCH =           0.0000             UZF-GWRCH =           0.0000     UZF             
             UZF-GWD =      746679.6606               UZF-GWD =      147871.7839     UZF             

           TOTAL OUT =    67127389.8775             TOTAL OUT =     6798330.6755

            IN - OUT =       -5863.4865              IN - OUT =        -765.1973

 PERCENT DISCREPANCY =          -0.01     PERCENT DISCREPANCY =          -0.01




         TIME SUMMARY AT END OF TIME STEP    5 IN STRESS PERIOD    1
                    SECONDS     MINUTES      HOURS       DAYS        YEARS
                    -----------------------------------------------------------
   TIME STEP LENGTH  86400.      1440.0      24.000      1.0000     2.73785E-03
 STRESS PERIOD TIME 4.32000E+05  7200.0      120.00      5.0000     1.36893E-02
         TOTAL TIME 4.32000E+05  7200.0      120.00      5.0000     1.36893E-02


end timestep


start timestep kper="1" kstp="6" mode="normal"



  UZF BUDGET FOR ENTIRE MODEL AT END OF TIME STEP    6, STRESS PERIOD   1
  ------------------------------------------------------------------------------

     CUMULATIVE UZF      L**3       RATES FOR THIS TIME STEP      L**3/T
     ------------------                 ------------------------

           IN:                                      IN:
           ---                                      ---
                 GWF =           0.0000                   GWF =           0.0000
        INFILTRATION =       29441.9629          INFILTRATION =        8651.3649
             REJ-INF =           0.0000               REJ-INF =           0.0000
             STORAGE =   170593583.3110               STORAGE =    13982471.5943

            TOTAL IN =   170623025.2739              TOTAL IN =    13991122.9593

          OUT:                                     OUT:
          ----                                     ----
                 GWF =    69259242.0061                   GWF =     4714070.8827
        INFILTRATION =           0.0000          INFILTRATION =           0.0000
             REJ-INF =        5676.0930               REJ-INF =        1795.4635
             STORAGE =       11504.5623               STORAGE =        3946.7420

           TOTAL OUT =    69276422.6614             TOTAL OUT =     4719813.0883

            IN - OUT =   101346602.6126              IN - OUT =     9271309.8710

 PERCENT DISCREPANCY =          84.49     PERCENT DISCREPANCY =          99.10



  VOLUME BUDGET FOR ENTIRE MODEL AT END OF TIME STEP    6, STRESS PERIOD   1
  ---------------------------------------------------------------------------------------------------

     CUMULATIVE VOLUME      L**3       RATES FOR THIS TIME STEP      L**3/T          PACKAGE NAME    
     ------------------                 ------------------------                     ----------------

           IN:                                      IN:
           ---                                      ---
              STO-SS =      258192.8387                STO-SS =       29790.4979     STORAGE         
              STO-SY =     2522493.3920                STO-SY =      381015.9906     STORAGE         
                 DRN =           0.0000                   DRN =           0.0000     DRN             
                 RIV =           0.0000                   RIV =           0.0000     RIV             
                 GHB =      246328.9932                   GHB =       41012.9776     GHB             
                 RCH =        1159.5099                   RCH =           0.0000     RCH             
                 CHD =           0.0000                   CHD =           0.0000     CHD             
           UZF-GWRCH =    69259242.0061             UZF-GWRCH =     4714070.8827     UZF             
             UZF-GWD =           0.0000               UZF-GWD =           0.0000     UZF             

            TOTAL IN =    72287416.7399              TOTAL IN =     5165890.3489

          OUT:                                     OUT:
          ----                                     ----
              STO-SS =     1248725.6196                STO-SS =       90795.3339     STORAGE         
              STO-SY =    67993575.8915                STO-SY =     4600901.5974     STORAGE         
                 DRN =     2018920.7113                   DRN =      303841.0755     DRN             
                 RIV =         112.8866                   RIV =          18.4723     RIV             
                 GHB =      136743.5939                   GHB =       22820.3822     GHB             
                 RCH =           0.0000                   RCH =           0.0000     RCH             
                 CHD =        1207.2477                   CHD =         198.8725     CHD             
           UZF-GWRCH =           0.0000             UZF-GWRCH =           0.0000     UZF             
             UZF-GWD =      893853.6780               UZF-GWD =      147174.0173     UZF             

           TOTAL OUT =    72293139.6286             TOTAL OUT =     5165749.7511

            IN - OUT =       -5722.8888              IN - OUT =         140.5978

 PERCENT DISCREPANCY =          -0.01     PERCENT DISCREPANCY =           0.00




         TIME SUMMARY AT END OF TIME STEP    6 IN STRESS PERIOD    1
                    SECONDS     MINUTES      HOURS       DAYS        YEARS
                    -----------------------------------------------------------
   TIME STEP LENGTH  86400.      1440.0      24.000      1.0000     2.73785E-03
 STRESS PERIOD TIME 5.18400E+05  8640.0      144.00      6.0000     1.64271E-02
         TOTAL TIME 5.18400E+05  8640.0      144.00      6.0000     1.64271E-02


end timestep


start timestep kper="1" kstp="7" mode="normal"



  UZF BUDGET FOR ENTIRE MODEL AT END OF TIME STEP    7, STRESS PERIOD   1
  ------------------------------------------------------------------------------

     CUMULATIVE UZF      L**3       RATES FOR THIS TIME STEP      L**3/T
     ------------------                 ------------------------

           IN:                                      IN:
           ---                                      ---
                 GWF =           0.0000                   GWF =           0.0000
        INFILTRATION =       39502.6099          INFILTRATION =       10060.6470
             REJ-INF =           0.0000               REJ-INF =           0.0000
             STORAGE =   181614490.2942               STORAGE =    11020906.9832

            TOTAL IN =   181653992.9041              TOTAL IN =    11030967.6302

          OUT:                                     OUT:
          ----                                     ----
                 GWF =    72983059.1499                   GWF =     3723817.1438
        INFILTRATION =           0.0000          INFILTRATION =           0.0000
             REJ-INF =        7797.0464               REJ-INF =        2120.9535
             STORAGE =       15872.4745               STORAGE =        4367.9122

           TOTAL OUT =    73006728.6708             TOTAL OUT =     3730306.0095

            IN - OUT =   108647264.2333              IN - OUT =     7300661.6207

 PERCENT DISCREPANCY =          85.33     PERCENT DISCREPANCY =          98.92



  VOLUME BUDGET FOR ENTIRE MODEL AT END OF TIME STEP    7, STRESS PERIOD   1
  ---------------------------------------------------------------------------------------------------

     CUMULATIVE VOLUME      L**3       RATES FOR THIS TIME STEP      L**3/T          PACKAGE NAME    
     ------------------                 ------------------------                     ----------------

           IN:                                      IN:
           ---                                      ---
              STO-SS =      286078.7759                STO-SS =       27885.9371     STORAGE         
              STO-SY =     2886784.8457                STO-SY =      364291.4537     STORAGE         
                 DRN =           0.0000                   DRN =           0.0000     DRN             
                 RIV =           0.0000                   RIV =           0.0000     RIV             
                 GHB =      287323.4004                   GHB =       40994.4072     GHB             
                 RCH =        1159.5099                   RCH =           0.0000     RCH             
                 CHD =           0.0000                   CHD =           0.0000     CHD             
           UZF-GWRCH =    72983059.1499             UZF-GWRCH =     3723817.1438     UZF             
             UZF-GWD =           0.0000               UZF-GWD =           0.0000     UZF             

            TOTAL IN =    76444405.6816              TOTAL IN =     4156988.9418

          OUT:                                     OUT:
          ----                                     ----
              STO-SS =     1324030.9566                STO-SS =       75305.3370     STORAGE         
              STO-SY =    71615770.7284                STO-SY =     3622194.8369     STORAGE         
                 DRN =     2311027.5021                   DRN =      292106.7909     DRN             
                 RIV =         131.2081                   RIV =          18.3214     RIV             
                 GHB =      159556.9743                   GHB =       22813.3804     GHB             
                 RCH =           0.0000                   RCH =           0.0000     RCH             
                 CHD =        1404.8637                   CHD =         197.6160     CHD             
           UZF-GWRCH =           0.0000             UZF-GWRCH =           0.0000     UZF             
             UZF-GWD =     1039104.1919               UZF-GWD =      145250.5139     UZF             

           TOTAL OUT =    76451026.4251             TOTAL OUT =     4157886.7965

            IN - OUT =       -6620.7435              IN - OUT =        -897.8547

 PERCENT DISCREPANCY =          -0.01     PERCENT DISCREPANCY =          -0.02




         TIME SUMMARY AT END OF TIME STEP    7 IN STRESS PERIOD    1
                    SECONDS     MINUTES      HOURS       DAYS        YEARS
                    -----------------------------------------------------------
   TIME STEP LENGTH  86400.      1440.0      24.000      1.0000     2.73785E-03
 STRESS PERIOD TIME 6.04800E+05  10080.      168.00      7.0000     1.91650E-02
         TOTAL TIME 6.04800E+05  10080.      168.00      7.0000     1.91650E-02


end timestep


start timestep kper="1" kstp="8" mode="normal"



  UZF BUDGET FOR ENTIRE MODEL AT END OF TIME STEP    8, STRESS PERIOD   1
  ------------------------------------------------------------------------------

     CUMULATIVE UZF      L**3       RATES FOR THIS TIME STEP      L**3/T
     ------------------                 ------------------------

           IN:                                      IN:
           ---                                      ---
                 GWF =           0.0000                   GWF =           0.0000
        INFILTRATION =       50924.3955          INFILTRATION =       11421.7856
             REJ-INF =           0.0000               REJ-INF =           0.0000
             STORAGE =   190722098.2111               STORAGE =     9107607.9169

            TOTAL IN =   190773022.6066              TOTAL IN =     9119029.7025

          OUT:                                     OUT:
          ----                                     ----
                 GWF =    76038699.3708                   GWF =     3055640.2210
        INFILTRATION =           0.0000          INFILTRATION =           0.0000
             REJ-INF =       10226.6889               REJ-INF =        2429.6425
             STORAGE =       20519.9744               STORAGE =        4647.4999

           TOTAL OUT =    76069446.0341             TOTAL OUT =     3062717.3633

            IN - OUT =   114703576.5725              IN - OUT =     6056312.3392

 PERCENT DISCREPANCY =          85.97     PERCENT DISCREPANCY =          99.43



  VOLUME BUDGET FOR ENTIRE MODEL AT END OF TIME STEP    8, STRESS PERIOD   1
  ---------------------------------------------------------------------------------------------------

     CUMULATIVE VOLUME      L**3       RATES FOR THIS TIME STEP      L**3/T          PACKAGE NAME    
     ------------------                 ------------------------                     ----------------

           IN:                                      IN:
           ---                                      ---
              STO-SS =      312416.3229                STO-SS =       26337.5470     STORAGE         
              STO-SY =     3237502.0448                STO-SY =      350717.1991     STORAGE         
                 DRN =           0.0000                   DRN =           0.0000     DRN             
                 RIV =           0.0000                   RIV =           0.0000     RIV             
                 GHB =      328299.6834                   GHB =       40976.2830     GHB             
                 RCH =        1169.9435                   RCH =          10.4336     RCH             
                 CHD =           0.0000                   CHD =           0.0000     CHD             
           UZF-GWRCH =    76038699.3708             UZF-GWRCH =     3055640.2210     UZF             
             UZF-GWD =           0.0000               UZF-GWD =           0.0000     UZF             

            TOTAL IN =    79918087.3653              TOTAL IN =     3473681.6837

          OUT:                                     OUT:
          ----                                     ----
              STO-SS =     1388489.4350                STO-SS =       64458.4784     STORAGE         
              STO-SY =    74578897.3487                STO-SY =     2963126.6203     STORAGE         
                 DRN =     2592455.6684                   DRN =      281428.1663     DRN             
                 RIV =         149.3917                   RIV =          18.1836     RIV             
                 GHB =      182359.7419                   GHB =       22802.7677     GHB             
                 RCH =           0.0000                   RCH =           0.0000     RCH             
                 CHD =        1601.3679                   CHD =         196.5041     CHD             
           UZF-GWRCH =           0.0000             UZF-GWRCH =           0.0000     UZF             
             UZF-GWD =     1181662.6217               UZF-GWD =      142558.4299     UZF             

           TOTAL OUT =    79925615.5753             TOTAL OUT =     3474589.1502

            IN - OUT =       -7528.2100              IN - OUT =        -907.4665

 PERCENT DISCREPANCY =          -0.01     PERCENT DISCREPANCY =          -0.03




         TIME SUMMARY AT END OF TIME STEP    8 IN STRESS PERIOD    1
                    SECONDS     MINUTES      HOURS       DAYS        YEARS
                    -----------------------------------------------------------
   TIME STEP LENGTH  86400.      1440.0      24.000      1.0000     2.73785E-03
 STRESS PERIOD TIME 6.91200E+05  11520.      192.00      8.0000     2.19028E-02
         TOTAL TIME 6.91200E+05  11520.      192.00      8.0000     2.19028E-02


end timestep


start timestep kper="1" kstp="9" mode="normal"



  UZF BUDGET FOR ENTIRE MODEL AT END OF TIME STEP    9, STRESS PERIOD   1
  ------------------------------------------------------------------------------

     CUMULATIVE UZF      L**3       RATES FOR THIS TIME STEP      L**3/T
     ------------------                 ------------------------

           IN:                                      IN:
           ---                                      ---
                 GWF =           0.0000                   GWF =           0.0000
        INFILTRATION =       65546.2954          INFILTRATION =       14621.8999
             REJ-INF =           0.0000               REJ-INF =           0.0000
             STORAGE =   198244965.1183               STORAGE =     7522866.9072

            TOTAL IN =   198310511.4137              TOTAL IN =     7537488.8071

          OUT:                                     OUT:
          ----                                     ----
                 GWF =    78623386.9408                   GWF =     2584687.5699
        INFILTRATION =           0.0000          INFILTRATION =           0.0000
             REJ-INF =       13018.1559               REJ-INF =        2791.4670
             STORAGE =       25733.1831               STORAGE =        5213.2087

           TOTAL OUT =    78662138.2798             TOTAL OUT =     2592692.2457

            IN - OUT =   119648373.1339              IN - OUT =     4944796.5614

 PERCENT DISCREPANCY =          86.40     PERCENT DISCREPANCY =          97.63



  VOLUME BUDGET FOR ENTIRE MODEL AT END OF TIME STEP    9, STRESS PERIOD   1
  ---------------------------------------------------------------------------------------------------

     CUMULATIVE VOLUME      L**3       RATES FOR THIS TIME STEP      L**3/T          PACKAGE NAME    
     ------------------                 ------------------------                     ----------------

           IN:                                      IN:
           ---                                      ---
              STO-SS =      337061.5885                STO-SS =       24645.2657     STORAGE         
              STO-SY =     3574046.3233                STO-SY =      336544.2785     STORAGE         
                 DRN =           0.0000                   DRN =           0.0000     DRN             
                 RIV =           0.0000                   RIV =           0.0000     RIV             
                 GHB =      369258.4797                   GHB =       40958.7964     GHB             
                 RCH =        5689.4589                   RCH =        4519.5154     RCH             
                 CHD =           0.0000                   CHD =           0.0000     CHD             
           UZF-GWRCH =    78623386.9408             UZF-GWRCH =     2584687.5699     UZF             
             UZF-GWD =           0.0000               UZF-GWD =           0.0000     UZF             

            TOTAL IN =    82909442.7913              TOTAL IN =     2991355.4259

          OUT:                                     OUT:
          ----                                     ----
              STO-SS =     1445206.3109                STO-SS =       56716.8759     STORAGE         
              STO-SY =    77080108.8509                STO-SY =     2501211.5021     STORAGE         
                 DRN =     2864138.3282                   DRN =      271682.6598     DRN             
                 RIV =         168.8340                   RIV =          19.4423     RIV             
                 GHB =      205155.0059                   GHB =       22795.2640     GHB             
                 RCH =           0.0000                   RCH =           0.0000     RCH             
                 CHD =        1799.7846                   CHD =         198.4168     CHD             
           UZF-GWRCH =           0.0000             UZF-GWRCH =           0.0000     UZF             
             UZF-GWD =     1320393.7509               UZF-GWD =      138731.1292     UZF             

           TOTAL OUT =    82916970.8654             TOTAL OUT =     2991355.2901

            IN - OUT =       -7528.0742              IN - OUT =           0.1358

 PERCENT DISCREPANCY =          -0.01     PERCENT DISCREPANCY =           0.00




         TIME SUMMARY AT END OF TIME STEP    9 IN STRESS PERIOD    1
                    SECONDS     MINUTES      HOURS       DAYS        YEARS
                    -----------------------------------------------------------
   TIME STEP LENGTH  86400.      1440.0      24.000      1.0000     2.73785E-03
 STRESS PERIOD TIME 7.77600E+05  12960.      216.00      9.0000     2.46407E-02
         TOTAL TIME 7.77600E+05  12960.      216.00      9.0000     2.46407E-02


end timestep


start timestep kper="1" kstp="10" mode="normal"


end timestep


start timestep kper="1" kstp="11" mode="normal"


end timestep


start timestep kper="1" kstp="12" mode="normal"


end timestep


start timestep kper="1" kstp="13" mode="normal"


end timestep


start timestep kper="1" kstp="14" mode="normal"


end timestep


start timestep kper="1" kstp="15" mode="normal"


end timestep


start timestep kper="1" kstp="16" mode="normal"


end timestep


start timestep kper="1" kstp="17" mode="normal"


end timestep


start timestep kper="1" kstp="18" mode="normal"


end timestep


start timestep kper="1" kstp="19" mode="normal"


end timestep


start timestep kper="1" kstp="20" mode="normal"


end timestep


start timestep kper="1" kstp="21" mode="normal"


end timestep


start timestep kper="1" kstp="22" mode="normal"


end timestep


start timestep kper="1" kstp="23" mode="normal"


end timestep


start timestep kper="1" kstp="24" mode="normal"


end timestep


start timestep kper="1" kstp="25" mode="normal"


end timestep


start timestep kper="1" kstp="26" mode="normal"


end timestep


start timestep kper="1" kstp="27" mode="normal"


end timestep


start timestep kper="1" kstp="28" mode="normal"


end timestep


start timestep kper="1" kstp="29" mode="normal"


end timestep


start timestep kper="1" kstp="30" mode="normal"


end timestep


start timestep kper="1" kstp="31" mode="normal"

 UBDSV1 SAVING           STO-SS ON UNIT   1026 AT TIME STEP     31, STRESS PERIOD      1
 UBDSV1 SAVING           STO-SY ON UNIT   1026 AT TIME STEP     31, STRESS PERIOD      1
 UBDSV1 SAVING     FLOW-JA-FACE ON UNIT   1026 AT TIME STEP     31, STRESS PERIOD      1
 UBDSV06 SAVING              DRN IN MODEL DC_MF6           PACKAGE DC_MF6          CONNECTED TO MODEL DC_MF6           PACKAGE DRN              ON UNIT   1026 AT TIME STEP     31, STRESS PERIOD      1
 UBDSV06 SAVING              RIV IN MODEL DC_MF6           PACKAGE DC_MF6          CONNECTED TO MODEL DC_MF6           PACKAGE RIV              ON UNIT   1026 AT TIME STEP     31, STRESS PERIOD      1
 UBDSV06 SAVING              GHB IN MODEL DC_MF6           PACKAGE DC_MF6          CONNECTED TO MODEL DC_MF6           PACKAGE GHB              ON UNIT   1026 AT TIME STEP     31, STRESS PERIOD      1
 UBDSV06 SAVING              RCH IN MODEL DC_MF6           PACKAGE DC_MF6          CONNECTED TO MODEL DC_MF6           PACKAGE RCH              ON UNIT   1026 AT TIME STEP     31, STRESS PERIOD      1
 UBDSV06 SAVING              CHD IN MODEL DC_MF6           PACKAGE DC_MF6          CONNECTED TO MODEL DC_MF6           PACKAGE CHD              ON UNIT   1026 AT TIME STEP     31, STRESS PERIOD      1
 UBDSV06 SAVING        UZF-GWRCH IN MODEL DC_MF6           PACKAGE DC_MF6          CONNECTED TO MODEL DC_MF6           PACKAGE UZF              ON UNIT   1026 AT TIME STEP     31, STRESS PERIOD      1
 UBDSV06 SAVING          UZF-GWD IN MODEL DC_MF6           PACKAGE DC_MF6          CONNECTED TO MODEL DC_MF6           PACKAGE UZF              ON UNIT   1026 AT TIME STEP     31, STRESS PERIOD      1

 HEAD WILL BE SAVED ON UNIT 1027 AT END OF TIME STEP   31, STRESS PERIOD    1


  UZF BUDGET FOR ENTIRE MODEL AT END OF TIME STEP   31, STRESS PERIOD   1
  ------------------------------------------------------------------------------

     CUMULATIVE UZF      L**3       RATES FOR THIS TIME STEP      L**3/T
     ------------------                 ------------------------

           IN:                                      IN:
           ---                                      ---
                 GWF =           0.0000                   GWF =           0.0000
        INFILTRATION =      558580.6973          INFILTRATION =       28293.1881
             REJ-INF =           0.0000               REJ-INF =           0.0000
             STORAGE =   261361593.8440               STORAGE =     1369827.7186

            TOTAL IN =   261920174.5413              TOTAL IN =     1398120.9067

          OUT:                                     OUT:
          ----                                     ----
                 GWF =    99338526.5395                   GWF =      375384.9980
        INFILTRATION =           0.0000          INFILTRATION =           0.0000
             REJ-INF =      119935.5540               REJ-INF =        6415.2071
             STORAGE =      137286.5741               STORAGE =        3988.0541

           TOTAL OUT =    99595748.6676             TOTAL OUT =      385788.2592

            IN - OUT =   162324425.8737              IN - OUT =     1012332.6474

 PERCENT DISCREPANCY =          89.80     PERCENT DISCREPANCY =         113.50



  VOLUME BUDGET FOR ENTIRE MODEL AT END OF TIME STEP   31, STRESS PERIOD   1
  ---------------------------------------------------------------------------------------------------

     CUMULATIVE VOLUME      L**3       RATES FOR THIS TIME STEP      L**3/T          PACKAGE NAME    
     ------------------                 ------------------------                     ----------------

           IN:                                      IN:
           ---                                      ---
              STO-SS =      721507.7549                STO-SS =       13294.7936     STORAGE         
              STO-SY =     9682970.4081                STO-SY =      253265.0140     STORAGE         
                 DRN =           0.0000                   DRN =           0.0000     DRN             
                 RIV =           0.0000                   RIV =           0.0000     RIV             
                 GHB =     1267383.0779                   GHB =       40740.1988     GHB             
                 RCH =       10956.0017                   RCH =           0.0000     RCH             
                 CHD =           0.0000                   CHD =           0.0000     CHD             
           UZF-GWRCH =    99338526.5395             UZF-GWRCH =      375384.9980     UZF             
             UZF-GWD =           0.0000               UZF-GWD =           0.0000     UZF             

            TOTAL IN =   111021343.7821              TOTAL IN =      682685.0044

          OUT:                                     OUT:
          ----                                     ----
              STO-SS =     2006248.1893                STO-SS =       12861.0224     STORAGE         
              STO-SY =    97102613.0905                STO-SY =      381846.8309     STORAGE         
                 DRN =     7319728.0600                   DRN =      160837.7110     DRN             
                 RIV =         541.5996                   RIV =          15.9854     RIV             
                 GHB =      702499.2446                   GHB =       22438.9785     GHB             
                 RCH =           0.0000                   RCH =           0.0000     RCH             
                 CHD =        5920.9635                   CHD =         181.0824     CHD             
           UZF-GWRCH =           0.0000             UZF-GWRCH =           0.0000     UZF             
             UZF-GWD =     3887304.7572               UZF-GWD =      104480.1415     UZF             

           TOTAL OUT =   111024855.9047             TOTAL OUT =      682661.7521

            IN - OUT =       -3512.1226              IN - OUT =          23.2522

 PERCENT DISCREPANCY =          -0.00     PERCENT DISCREPANCY =           0.00




         TIME SUMMARY AT END OF TIME STEP   31 IN STRESS PERIOD    1
                    SECONDS     MINUTES      HOURS       DAYS        YEARS
                    -----------------------------------------------------------
   TIME STEP LENGTH  86400.      1440.0      24.000      1.0000     2.73785E-03
 STRESS PERIOD TIME 2.67840E+06  44640.      744.00      31.000     8.48734E-02
         TOTAL TIME 2.67840E+06  44640.      744.00      31.000     8.48734E-02


end timestep


start timestep kper="2" kstp="1" mode="normal"


 BEGIN READING OUTPUT CONTROL FOR STRESS PERIOD 2
      THE LAST TIME STEP WILL BE SAVED
      THE LAST TIME STEP WILL BE SAVED
      THE LAST TIME STEP WILL BE PRINTED

 END READING OUTPUT CONTROL FOR STRESS PERIOD 2


 STRESS PERIOD 2 IS TRANSIENT


 REUSING DRNS FROM LAST STRESS PERIOD

 REUSING RIVS FROM LAST STRESS PERIOD

 REUSING GHBS FROM LAST STRESS PERIOD

 REUSING RCHS FROM LAST STRESS PERIOD

 REUSING CHDS FROM LAST STRESS PERIOD

end timestep


start timestep kper="2" kstp="2" mode="normal"


end timestep


start timestep kper="2" kstp="3" mode="normal"


end timestep


start timestep kper="2" kstp="4" mode="normal"


end timestep


start timestep kper="2" kstp="5" mode="normal"


end timestep


start timestep kper="2" kstp="6" mode="normal"


end timestep


start timestep kper="2" kstp="7" mode="normal"


end timestep


start timestep kper="2" kstp="8" mode="normal"


end timestep


start timestep kper="2" kstp="9" mode="normal"


end timestep


start timestep kper="2" kstp="10" mode="normal"


end timestep


start timestep kper="2" kstp="11" mode="normal"


end timestep


start timestep kper="2" kstp="12" mode="normal"


end timestep


start timestep kper="2" kstp="13" mode="normal"


end timestep


start timestep kper="2" kstp="14" mode="normal"


end timestep


start timestep kper="2" kstp="15" mode="normal"


end timestep


start timestep kper="2" kstp="16" mode="normal"


end timestep


start timestep kper="2" kstp="17" mode="normal"


end timestep


start timestep kper="2" kstp="18" mode="normal"


end timestep


start timestep kper="2" kstp="19" mode="normal"


end timestep


start timestep kper="2" kstp="20" mode="normal"


end timestep


start timestep kper="2" kstp="21" mode="normal"


end timestep


start timestep kper="2" kstp="22" mode="normal"


end timestep


start timestep kper="2" kstp="23" mode="normal"


end timestep


start timestep kper="2" kstp="24" mode="normal"


end timestep


start timestep kper="2" kstp="25" mode="normal"


end timestep


start timestep kper="2" kstp="26" mode="normal"


end timestep


start timestep kper="2" kstp="27" mode="normal"


end timestep


start timestep kper="2" kstp="28" mode="normal"

 UBDSV1 SAVING           STO-SS ON UNIT   1026 AT TIME STEP     28, STRESS PERIOD      2
 UBDSV1 SAVING           STO-SY ON UNIT   1026 AT TIME STEP     28, STRESS PERIOD      2
 UBDSV1 SAVING     FLOW-JA-FACE ON UNIT   1026 AT TIME STEP     28, STRESS PERIOD      2
 UBDSV06 SAVING              DRN IN MODEL DC_MF6           PACKAGE DC_MF6          CONNECTED TO MODEL DC_MF6           PACKAGE DRN              ON UNIT   1026 AT TIME STEP     28, STRESS PERIOD      2
 UBDSV06 SAVING              RIV IN MODEL DC_MF6           PACKAGE DC_MF6          CONNECTED TO MODEL DC_MF6           PACKAGE RIV              ON UNIT   1026 AT TIME STEP     28, STRESS PERIOD      2
 UBDSV06 SAVING              GHB IN MODEL DC_MF6           PACKAGE DC_MF6          CONNECTED TO MODEL DC_MF6           PACKAGE GHB              ON UNIT   1026 AT TIME STEP     28, STRESS PERIOD      2
 UBDSV06 SAVING              RCH IN MODEL DC_MF6           PACKAGE DC_MF6          CONNECTED TO MODEL DC_MF6           PACKAGE RCH              ON UNIT   1026 AT TIME STEP     28, STRESS PERIOD      2
 UBDSV06 SAVING              CHD IN MODEL DC_MF6           PACKAGE DC_MF6          CONNECTED TO MODEL DC_MF6           PACKAGE CHD              ON UNIT   1026 AT TIME STEP     28, STRESS PERIOD      2
 UBDSV06 SAVING        UZF-GWRCH IN MODEL DC_MF6           PACKAGE DC_MF6          CONNECTED TO MODEL DC_MF6           PACKAGE UZF              ON UNIT   1026 AT TIME STEP     28, STRESS PERIOD      2
 UBDSV06 SAVING          UZF-GWD IN MODEL DC_MF6           PACKAGE DC_MF6          CONNECTED TO MODEL DC_MF6           PACKAGE UZF              ON UNIT   1026 AT TIME STEP     28, STRESS PERIOD      2

 HEAD WILL BE SAVED ON UNIT 1027 AT END OF TIME STEP   28, STRESS PERIOD    2


  UZF BUDGET FOR ENTIRE MODEL AT END OF TIME STEP   28, STRESS PERIOD   2
  ------------------------------------------------------------------------------

     CUMULATIVE UZF      L**3       RATES FOR THIS TIME STEP      L**3/T
     ------------------                 ------------------------

           IN:                                      IN:
           ---                                      ---
                 GWF =           0.0000                   GWF =           0.0000
        INFILTRATION =     1419238.9041          INFILTRATION =       31828.6996
             REJ-INF =           0.0000               REJ-INF =           0.0000
             STORAGE =   279538615.5796               STORAGE =      407333.6274

            TOTAL IN =   280957854.4836              TOTAL IN =      439162.3269

          OUT:                                     OUT:
          ----                                     ----
                 GWF =   105333299.2828                   GWF =      179908.1992
        INFILTRATION =           0.0000          INFILTRATION =           0.0000
             REJ-INF =      315033.0020               REJ-INF =        7154.1870
             STORAGE =      197123.7287               STORAGE =        1289.4561

           TOTAL OUT =   105845456.0134             TOTAL OUT =      188351.8423

            IN - OUT =   175112398.4702              IN - OUT =      250810.4846

 PERCENT DISCREPANCY =          90.54     PERCENT DISCREPANCY =          79.94



  VOLUME BUDGET FOR ENTIRE MODEL AT END OF TIME STEP   28, STRESS PERIOD   2
  ---------------------------------------------------------------------------------------------------

     CUMULATIVE VOLUME      L**3       RATES FOR THIS TIME STEP      L**3/T          PACKAGE NAME    
     ------------------                 ------------------------                     ----------------

           IN:                                      IN:
           ---                                      ---
              STO-SS =     1008607.8036                STO-SS =        8065.7883     STORAGE         
              STO-SY =    15828683.0739                STO-SY =      184201.1226     STORAGE         
                 DRN =           0.0000                   DRN =           0.0000     DRN             
                 RIV =           0.0000                   RIV =           0.0000     RIV             
                 GHB =     2406705.7088                   GHB =       40660.8743     GHB             
                 RCH =       11492.2823                   RCH =           0.0000     RCH             
                 CHD =           0.0000                   CHD =           0.0000     CHD             
           UZF-GWRCH =   105333299.2828             UZF-GWRCH =      179908.1992     UZF             
             UZF-GWD =           0.0000               UZF-GWD =           0.0000     UZF             

            TOTAL IN =   124588788.1514              TOTAL IN =      412835.9844

          OUT:                                     OUT:
          ----                                     ----
              STO-SS =     2218909.9416                STO-SS =        5279.8731     STORAGE         
              STO-SY =   103373581.7485                STO-SY =      178060.0619     STORAGE         
                 DRN =    11019500.7684                   DRN =      112377.8702     DRN             
                 RIV =         966.8176                   RIV =          14.5496     RIV             
                 GHB =     1325558.2653                   GHB =       22096.7558     GHB             
                 RCH =           0.0000                   RCH =           0.0000     RCH             
                 CHD =       10845.5710                   CHD =         171.8739     CHD             
           UZF-GWRCH =           0.0000             UZF-GWRCH =           0.0000     UZF             
             UZF-GWD =     6642933.9753               UZF-GWD =       94834.7094     UZF             

           TOTAL OUT =   124592297.0876             TOTAL OUT =      412835.6940

            IN - OUT =       -3508.9363              IN - OUT =           0.2904

 PERCENT DISCREPANCY =          -0.00     PERCENT DISCREPANCY =           0.00




         TIME SUMMARY AT END OF TIME STEP   28 IN STRESS PERIOD    2
                    SECONDS     MINUTES      HOURS       DAYS        YEARS
                    -----------------------------------------------------------
   TIME STEP LENGTH  86400.      1440.0      24.000      1.0000     2.73785E-03
 STRESS PERIOD TIME 2.41920E+06  40320.      672.00      28.000     7.66598E-02
         TOTAL TIME 5.09760E+06  84960.      1416.0      59.000     0.16153    


end timestep


start timestep kper="3" kstp="1" mode="normal"


 BEGIN READING OUTPUT CONTROL FOR STRESS PERIOD 3
      THE LAST TIME STEP WILL BE SAVED
      THE LAST TIME STEP WILL BE SAVED
      THE LAST TIME STEP WILL BE PRINTED

 END READING OUTPUT CONTROL FOR STRESS PERIOD 3


 STRESS PERIOD 3 IS TRANSIENT


 REUSING DRNS FROM LAST STRESS PERIOD

 REUSING RIVS FROM LAST STRESS PERIOD

 REUSING GHBS FROM LAST STRESS PERIOD

 REUSING RCHS FROM LAST STRESS PERIOD

 REUSING CHDS FROM LAST STRESS PERIOD

end timestep


start timestep kper="3" kstp="2" mode="normal"


end timestep


start timestep kper="3" kstp="3" mode="normal"


end timestep


start timestep kper="3" kstp="4" mode="normal"


end timestep


start timestep kper="3" kstp="5" mode="normal"


end timestep


start timestep kper="3" kstp="6" mode="normal"


end timestep


start timestep kper="3" kstp="7" mode="normal"


end timestep


start timestep kper="3" kstp="8" mode="normal"


end timestep


start timestep kper="3" kstp="9" mode="normal"


end timestep


start timestep kper="3" kstp="10" mode="normal"


end timestep


start timestep kper="3" kstp="11" mode="normal"


end timestep


start timestep kper="3" kstp="12" mode="normal"


end timestep


start timestep kper="3" kstp="13" mode="normal"


end timestep


start timestep kper="3" kstp="14" mode="normal"


end timestep


start timestep kper="3" kstp="15" mode="normal"


end timestep


start timestep kper="3" kstp="16" mode="normal"


end timestep


start timestep kper="3" kstp="17" mode="normal"


end timestep


start timestep kper="3" kstp="18" mode="normal"


end timestep


start timestep kper="3" kstp="19" mode="normal"


end timestep


start timestep kper="3" kstp="20" mode="normal"


end timestep


start timestep kper="3" kstp="21" mode="normal"


end timestep


start timestep kper="3" kstp="22" mode="normal"


end timestep


start timestep kper="3" kstp="23" mode="normal"


end timestep


start timestep kper="3" kstp="24" mode="normal"


end timestep


start timestep kper="3" kstp="25" mode="normal"


end timestep


start timestep kper="3" kstp="26" mode="normal"


end timestep


start timestep kper="3" kstp="27" mode="normal"


end timestep


start timestep kper="3" kstp="28" mode="normal"


end timestep


start timestep kper="3" kstp="29" mode="normal"


end timestep


start timestep kper="3" kstp="30" mode="normal"


end timestep


start timestep kper="3" kstp="31" mode="normal"

 UBDSV1 SAVING           STO-SS ON UNIT   1026 AT TIME STEP     31, STRESS PERIOD      3
 UBDSV1 SAVING           STO-SY ON UNIT   1026 AT TIME STEP     31, STRESS PERIOD      3
 UBDSV1 SAVING     FLOW-JA-FACE ON UNIT   1026 AT TIME STEP     31, STRESS PERIOD      3
 UBDSV06 SAVING              DRN IN MODEL DC_MF6           PACKAGE DC_MF6          CONNECTED TO MODEL DC_MF6           PACKAGE DRN              ON UNIT   1026 AT TIME STEP     31, STRESS PERIOD      3
 UBDSV06 SAVING              RIV IN MODEL DC_MF6           PACKAGE DC_MF6          CONNECTED TO MODEL DC_MF6           PACKAGE RIV              ON UNIT   1026 AT TIME STEP     31, STRESS PERIOD      3
 UBDSV06 SAVING              GHB IN MODEL DC_MF6           PACKAGE DC_MF6          CONNECTED TO MODEL DC_MF6           PACKAGE GHB              ON UNIT   1026 AT TIME STEP     31, STRESS PERIOD      3
 UBDSV06 SAVING              RCH IN MODEL DC_MF6           PACKAGE DC_MF6          CONNECTED TO MODEL DC_MF6           PACKAGE RCH              ON UNIT   1026 AT TIME STEP     31, STRESS PERIOD      3
 UBDSV06 SAVING              CHD IN MODEL DC_MF6           PACKAGE DC_MF6          CONNECTED TO MODEL DC_MF6           PACKAGE CHD              ON UNIT   1026 AT TIME STEP     31, STRESS PERIOD      3
 UBDSV06 SAVING        UZF-GWRCH IN MODEL DC_MF6           PACKAGE DC_MF6          CONNECTED TO MODEL DC_MF6           PACKAGE UZF              ON UNIT   1026 AT TIME STEP     31, STRESS PERIOD      3
 UBDSV06 SAVING          UZF-GWD IN MODEL DC_MF6           PACKAGE DC_MF6          CONNECTED TO MODEL DC_MF6           PACKAGE UZF              ON UNIT   1026 AT TIME STEP     31, STRESS PERIOD      3

 HEAD WILL BE SAVED ON UNIT 1027 AT END OF TIME STEP   31, STRESS PERIOD    3


  UZF BUDGET FOR ENTIRE MODEL AT END OF TIME STEP   31, STRESS PERIOD   3
  ------------------------------------------------------------------------------

     CUMULATIVE UZF      L**3       RATES FOR THIS TIME STEP      L**3/T
     ------------------                 ------------------------

           IN:                                      IN:
           ---                                      ---
                 GWF =           0.0000                   GWF =           0.0000
        INFILTRATION =     2418408.4581          INFILTRATION =       32384.1959
             REJ-INF =           0.0000               REJ-INF =           0.0000
             STORAGE =   291662067.6623               STORAGE =      377931.9424

            TOTAL IN =   294080476.1204              TOTAL IN =      410316.1383

          OUT:                                     OUT:
          ----                                     ----
                 GWF =   110624401.9824                   GWF =      161219.6428
        INFILTRATION =           0.0000          INFILTRATION =           0.0000
             REJ-INF =      537608.2197               REJ-INF =        7162.7650
             STORAGE =      220933.9837               STORAGE =         481.9060

           TOTAL OUT =   111382944.1857             TOTAL OUT =      168864.3138

            IN - OUT =   182697531.9347              IN - OUT =      241451.8245

 PERCENT DISCREPANCY =          90.12     PERCENT DISCREPANCY =          83.38



  VOLUME BUDGET FOR ENTIRE MODEL AT END OF TIME STEP   31, STRESS PERIOD   3
  ---------------------------------------------------------------------------------------------------

     CUMULATIVE VOLUME      L**3       RATES FOR THIS TIME STEP      L**3/T          PACKAGE NAME    
     ------------------                 ------------------------                     ----------------

           IN:                                      IN:
           ---                                      ---
              STO-SS =     1211040.4862                STO-SS =        5411.9435     STORAGE         
              STO-SY =    20667651.0868                STO-SY =      135962.8431     STORAGE         
                 DRN =           0.0000                   DRN =           0.0000     DRN             
                 RIV =           0.0000                   RIV =           0.0000     RIV             
                 GHB =     3666642.6193                   GHB =       40630.0580     GHB             
                 RCH =       12717.3767                   RCH =           0.0000     RCH             
                 CHD =           0.0000                   CHD =           0.0000     CHD             
           UZF-GWRCH =   110624401.9824             UZF-GWRCH =      161219.6428     UZF             
             UZF-GWD =           0.0000               UZF-GWD =           0.0000     UZF             

            TOTAL IN =   136182453.5514              TOTAL IN =      343224.4874

          OUT:                                     OUT:
          ----                                     ----
              STO-SS =     2351430.6445                STO-SS =        3582.4748     STORAGE         
              STO-SY =   108222021.9623                STO-SY =      138526.4227     STORAGE         
                 DRN =    14067655.2752                   DRN =       87796.5652     DRN             
                 RIV =        1400.9241                   RIV =          13.5367     RIV             
                 GHB =     2005852.0032                   GHB =       21813.0496     GHB             
                 RCH =           0.0000                   RCH =           0.0000     RCH             
                 CHD =       16060.6724                   CHD =         165.1055     CHD             
           UZF-GWRCH =           0.0000             UZF-GWRCH =           0.0000     UZF             
             UZF-GWD =     9521530.0357               UZF-GWD =       91326.8493     UZF             

           TOTAL OUT =   136185951.5174             TOTAL OUT =      343224.0037

            IN - OUT =       -3497.9659              IN - OUT =           0.4837

 PERCENT DISCREPANCY =          -0.00     PERCENT DISCREPANCY =           0.00




         TIME SUMMARY AT END OF TIME STEP   31 IN STRESS PERIOD    3
                    SECONDS     MINUTES      HOURS       DAYS        YEARS
                    -----------------------------------------------------------
   TIME STEP LENGTH  86400.      1440.0      24.000      1.0000     2.73785E-03
 STRESS PERIOD TIME 2.67840E+06  44640.      744.00      31.000     8.48734E-02
         TOTAL TIME 7.77600E+06 1.29600E+05  2160.0      90.000     0.24641    


end timestep


start timestep kper="4" kstp="1" mode="normal"


 BEGIN READING OUTPUT CONTROL FOR STRESS PERIOD 4
      THE LAST TIME STEP WILL BE SAVED
      THE LAST TIME STEP WILL BE SAVED
      THE LAST TIME STEP WILL BE PRINTED

 END READING OUTPUT CONTROL FOR STRESS PERIOD 4


[...]
             UZF-GWD =           0.0000               UZF-GWD =           0.0000     UZF             

            TOTAL IN =   417560287.7494              TOTAL IN =      116996.5825

          OUT:                                     OUT:
          ----                                     ----
              STO-SS =     2912650.5536                STO-SS =          21.0303     STORAGE         
              STO-SY =   133476674.8022                STO-SY =        1203.6225     STORAGE         
                 DRN =   100090733.5071                   DRN =       40440.6575     DRN             
                 RIV =       18190.2105                   RIV =           6.8948     RIV             
                 GHB =    36710253.6279                   GHB =       15806.3899     GHB             
                 RCH =           0.0000                   RCH =           0.0000     RCH             
                 CHD =      222039.0575                   CHD =          85.2642     CHD             
           UZF-GWRCH =           0.0000             UZF-GWRCH =           0.0000     UZF             
             UZF-GWD =   144134376.3338               UZF-GWD =       59433.6745     UZF             

           TOTAL OUT =   417564918.0926             TOTAL OUT =      116997.5336

            IN - OUT =       -4630.3432              IN - OUT =          -0.9511

 PERCENT DISCREPANCY =          -0.00     PERCENT DISCREPANCY =          -0.00




         TIME SUMMARY AT END OF TIME STEP   30 IN STRESS PERIOD   66
                    SECONDS     MINUTES      HOURS       DAYS        YEARS
                    -----------------------------------------------------------
   TIME STEP LENGTH  86400.      1440.0      24.000      1.0000     2.73785E-03
 STRESS PERIOD TIME 2.59200E+06  43200.      720.00      30.000     8.21355E-02
         TOTAL TIME 1.73405E+08 2.89008E+06  48168.      2007.0      5.4949    


end timestep


start timestep kper="67" kstp="1" mode="normal"


 BEGIN READING OUTPUT CONTROL FOR STRESS PERIOD 67
      THE LAST TIME STEP WILL BE SAVED
      THE LAST TIME STEP WILL BE SAVED
      THE LAST TIME STEP WILL BE PRINTED

 END READING OUTPUT CONTROL FOR STRESS PERIOD 67


 STRESS PERIOD 67 IS TRANSIENT


 REUSING DRNS FROM LAST STRESS PERIOD

 REUSING RIVS FROM LAST STRESS PERIOD

 REUSING GHBS FROM LAST STRESS PERIOD

 REUSING RCHS FROM LAST STRESS PERIOD

 REUSING CHDS FROM LAST STRESS PERIOD

end timestep


start timestep kper="67" kstp="2" mode="normal"


end timestep


start timestep kper="67" kstp="3" mode="normal"


end timestep


start timestep kper="67" kstp="4" mode="normal"


end timestep


start timestep kper="67" kstp="5" mode="normal"


end timestep


start timestep kper="67" kstp="6" mode="normal"


end timestep


start timestep kper="67" kstp="7" mode="normal"


end timestep


start timestep kper="67" kstp="8" mode="normal"


end timestep


start timestep kper="67" kstp="9" mode="normal"


end timestep


start timestep kper="67" kstp="10" mode="normal"


end timestep


start timestep kper="67" kstp="11" mode="normal"


end timestep


start timestep kper="67" kstp="12" mode="normal"


end timestep


start timestep kper="67" kstp="13" mode="normal"


end timestep


start timestep kper="67" kstp="14" mode="normal"


end timestep


start timestep kper="67" kstp="15" mode="normal"


end timestep


start timestep kper="67" kstp="16" mode="normal"


end timestep


start timestep kper="67" kstp="17" mode="normal"


end timestep


start timestep kper="67" kstp="18" mode="normal"


end timestep


start timestep kper="67" kstp="19" mode="normal"


end timestep


start timestep kper="67" kstp="20" mode="normal"


end timestep


start timestep kper="67" kstp="21" mode="normal"


end timestep


start timestep kper="67" kstp="22" mode="normal"


end timestep


start timestep kper="67" kstp="23" mode="normal"


end timestep


start timestep kper="67" kstp="24" mode="normal"


end timestep


start timestep kper="67" kstp="25" mode="normal"


end timestep


start timestep kper="67" kstp="26" mode="normal"


end timestep


start timestep kper="67" kstp="27" mode="normal"


end timestep


start timestep kper="67" kstp="28" mode="normal"


end timestep


start timestep kper="67" kstp="29" mode="normal"


end timestep


start timestep kper="67" kstp="30" mode="normal"


end timestep


start timestep kper="67" kstp="31" mode="normal"

 UBDSV1 SAVING           STO-SS ON UNIT   1026 AT TIME STEP     31, STRESS PERIOD     67
 UBDSV1 SAVING           STO-SY ON UNIT   1026 AT TIME STEP     31, STRESS PERIOD     67
 UBDSV1 SAVING     FLOW-JA-FACE ON UNIT   1026 AT TIME STEP     31, STRESS PERIOD     67
 UBDSV06 SAVING              DRN IN MODEL DC_MF6           PACKAGE DC_MF6          CONNECTED TO MODEL DC_MF6           PACKAGE DRN              ON UNIT   1026 AT TIME STEP     31, STRESS PERIOD     67
 UBDSV06 SAVING              RIV IN MODEL DC_MF6           PACKAGE DC_MF6          CONNECTED TO MODEL DC_MF6           PACKAGE RIV              ON UNIT   1026 AT TIME STEP     31, STRESS PERIOD     67
 UBDSV06 SAVING              GHB IN MODEL DC_MF6           PACKAGE DC_MF6          CONNECTED TO MODEL DC_MF6           PACKAGE GHB              ON UNIT   1026 AT TIME STEP     31, STRESS PERIOD     67
 UBDSV06 SAVING              RCH IN MODEL DC_MF6           PACKAGE DC_MF6          CONNECTED TO MODEL DC_MF6           PACKAGE RCH              ON UNIT   1026 AT TIME STEP     31, STRESS PERIOD     67
 UBDSV06 SAVING              CHD IN MODEL DC_MF6           PACKAGE DC_MF6          CONNECTED TO MODEL DC_MF6           PACKAGE CHD              ON UNIT   1026 AT TIME STEP     31, STRESS PERIOD     67
 UBDSV06 SAVING        UZF-GWRCH IN MODEL DC_MF6           PACKAGE DC_MF6          CONNECTED TO MODEL DC_MF6           PACKAGE UZF              ON UNIT   1026 AT TIME STEP     31, STRESS PERIOD     67
 UBDSV06 SAVING          UZF-GWD IN MODEL DC_MF6           PACKAGE DC_MF6          CONNECTED TO MODEL DC_MF6           PACKAGE UZF              ON UNIT   1026 AT TIME STEP     31, STRESS PERIOD     67

 HEAD WILL BE SAVED ON UNIT 1027 AT END OF TIME STEP   31, STRESS PERIOD   67


  UZF BUDGET FOR ENTIRE MODEL AT END OF TIME STEP   31, STRESS PERIOD  67
  ------------------------------------------------------------------------------

     CUMULATIVE UZF      L**3       RATES FOR THIS TIME STEP      L**3/T
     ------------------                 ------------------------

           IN:                                      IN:
           ---                                      ---
                 GWF =           0.0000                   GWF =           0.0000
        INFILTRATION =    63073720.3249          INFILTRATION =       25316.5982
             REJ-INF =           0.0000               REJ-INF =           0.0000
             STORAGE =   334678117.9472               STORAGE =         434.7101

            TOTAL IN =   397751838.2721              TOTAL IN =       25751.3083

          OUT:                                     OUT:
          ----                                     ----
                 GWF =   169384771.3233                   GWF =       18953.8379
        INFILTRATION =           0.0000          INFILTRATION =           0.0000
             REJ-INF =    12277227.8413               REJ-INF =        5372.3049
             STORAGE =      670086.4212               STORAGE =          98.0233

           TOTAL OUT =   182332085.5857             TOTAL OUT =       24424.1660

            IN - OUT =   215419752.6864              IN - OUT =        1327.1422

 PERCENT DISCREPANCY =          74.27     PERCENT DISCREPANCY =           5.29



  VOLUME BUDGET FOR ENTIRE MODEL AT END OF TIME STEP   31, STRESS PERIOD  67
  ---------------------------------------------------------------------------------------------------

     CUMULATIVE VOLUME      L**3       RATES FOR THIS TIME STEP      L**3/T          PACKAGE NAME    
     ------------------                 ------------------------                     ----------------

           IN:                                      IN:
           ---                                      ---
              STO-SS =     4622742.0479                STO-SS =        1276.7926     STORAGE         
              STO-SY =   162910540.6135                STO-SY =       53589.5660     STORAGE         
                 DRN =           0.0000                   DRN =           0.0000     DRN             
                 RIV =           0.0000                   RIV =           0.0000     RIV             
                 GHB =    83373375.4866                   GHB =       41358.9990     GHB             
                 RCH =      898227.8343                   RCH =        7534.3266     RCH             
                 CHD =           0.0000                   CHD =           0.0000     CHD             
           UZF-GWRCH =   169384771.3233             UZF-GWRCH =       18953.8379     UZF             
             UZF-GWD =           0.0000               UZF-GWD =           0.0000     UZF             

            TOTAL IN =   421189657.3055              TOTAL IN =      122713.5220

          OUT:                                     OUT:
          ----                                     ----
              STO-SS =     2913549.7508                STO-SS =         155.8583     STORAGE         
              STO-SY =   133524924.0878                STO-SY =        7304.2678     STORAGE         
                 DRN =   101344109.7281                   DRN =       40425.4655     DRN             
                 RIV =       18403.7305                   RIV =           6.8823     RIV             
                 GHB =    37199543.6345                   GHB =       15761.4367     GHB             
                 RCH =           0.0000                   RCH =           0.0000     RCH             
                 CHD =      224678.3205                   CHD =          85.0160     CHD             
           UZF-GWRCH =           0.0000             UZF-GWRCH =           0.0000     UZF             
             UZF-GWD =   145969102.1707               UZF-GWD =       58974.7505     UZF             

           TOTAL OUT =   421194311.4229             TOTAL OUT =      122713.6770

            IN - OUT =       -4654.1174              IN - OUT =          -0.1550

 PERCENT DISCREPANCY =          -0.00     PERCENT DISCREPANCY =          -0.00




         TIME SUMMARY AT END OF TIME STEP   31 IN STRESS PERIOD   67
                    SECONDS     MINUTES      HOURS       DAYS        YEARS
                    -----------------------------------------------------------
   TIME STEP LENGTH  86400.      1440.0      24.000      1.0000     2.73785E-03
 STRESS PERIOD TIME 2.67840E+06  44640.      744.00      31.000     8.48734E-02
         TOTAL TIME 1.76083E+08 2.93472E+06  48912.      2038.0      5.5797    


end timestep


start timestep kper="68" kstp="1" mode="normal"


 BEGIN READING OUTPUT CONTROL FOR STRESS PERIOD 68
      THE LAST TIME STEP WILL BE SAVED
      THE LAST TIME STEP WILL BE SAVED
      THE LAST TIME STEP WILL BE PRINTED

 END READING OUTPUT CONTROL FOR STRESS PERIOD 68


 STRESS PERIOD 68 IS TRANSIENT


 REUSING DRNS FROM LAST STRESS PERIOD

 REUSING RIVS FROM LAST STRESS PERIOD

 REUSING GHBS FROM LAST STRESS PERIOD

 REUSING RCHS FROM LAST STRESS PERIOD

 REUSING CHDS FROM LAST STRESS PERIOD

end timestep


start timestep kper="68" kstp="2" mode="normal"


end timestep


start timestep kper="68" kstp="3" mode="normal"


end timestep


start timestep kper="68" kstp="4" mode="normal"


end timestep


start timestep kper="68" kstp="5" mode="normal"


end timestep


start timestep kper="68" kstp="6" mode="normal"


end timestep


start timestep kper="68" kstp="7" mode="normal"


end timestep


start timestep kper="68" kstp="8" mode="normal"


end timestep


start timestep kper="68" kstp="9" mode="normal"


end timestep


start timestep kper="68" kstp="10" mode="normal"


end timestep


start timestep kper="68" kstp="11" mode="normal"


end timestep


start timestep kper="68" kstp="12" mode="normal"


end timestep


start timestep kper="68" kstp="13" mode="normal"


end timestep


start timestep kper="68" kstp="14" mode="normal"


end timestep


start timestep kper="68" kstp="15" mode="normal"


end timestep


start timestep kper="68" kstp="16" mode="normal"


end timestep


start timestep kper="68" kstp="17" mode="normal"


end timestep


start timestep kper="68" kstp="18" mode="normal"


end timestep


start timestep kper="68" kstp="19" mode="normal"


end timestep


start timestep kper="68" kstp="20" mode="normal"


end timestep


start timestep kper="68" kstp="21" mode="normal"


end timestep


start timestep kper="68" kstp="22" mode="normal"


end timestep


start timestep kper="68" kstp="23" mode="normal"


end timestep


start timestep kper="68" kstp="24" mode="normal"


end timestep


start timestep kper="68" kstp="25" mode="normal"


end timestep


start timestep kper="68" kstp="26" mode="normal"


end timestep


start timestep kper="68" kstp="27" mode="normal"


end timestep


start timestep kper="68" kstp="28" mode="normal"


end timestep


start timestep kper="68" kstp="29" mode="normal"


end timestep


start timestep kper="68" kstp="30" mode="normal"


end timestep


start timestep kper="68" kstp="31" mode="normal"

 UBDSV1 SAVING           STO-SS ON UNIT   1026 AT TIME STEP     31, STRESS PERIOD     68
 UBDSV1 SAVING           STO-SY ON UNIT   1026 AT TIME STEP     31, STRESS PERIOD     68
 UBDSV1 SAVING     FLOW-JA-FACE ON UNIT   1026 AT TIME STEP     31, STRESS PERIOD     68
 UBDSV06 SAVING              DRN IN MODEL DC_MF6           PACKAGE DC_MF6          CONNECTED TO MODEL DC_MF6           PACKAGE DRN              ON UNIT   1026 AT TIME STEP     31, STRESS PERIOD     68
 UBDSV06 SAVING              RIV IN MODEL DC_MF6           PACKAGE DC_MF6          CONNECTED TO MODEL DC_MF6           PACKAGE RIV              ON UNIT   1026 AT TIME STEP     31, STRESS PERIOD     68
 UBDSV06 SAVING              GHB IN MODEL DC_MF6           PACKAGE DC_MF6          CONNECTED TO MODEL DC_MF6           PACKAGE GHB              ON UNIT   1026 AT TIME STEP     31, STRESS PERIOD     68
 UBDSV06 SAVING              RCH IN MODEL DC_MF6           PACKAGE DC_MF6          CONNECTED TO MODEL DC_MF6           PACKAGE RCH              ON UNIT   1026 AT TIME STEP     31, STRESS PERIOD     68
 UBDSV06 SAVING              CHD IN MODEL DC_MF6           PACKAGE DC_MF6          CONNECTED TO MODEL DC_MF6           PACKAGE CHD              ON UNIT   1026 AT TIME STEP     31, STRESS PERIOD     68
 UBDSV06 SAVING        UZF-GWRCH IN MODEL DC_MF6           PACKAGE DC_MF6          CONNECTED TO MODEL DC_MF6           PACKAGE UZF              ON UNIT   1026 AT TIME STEP     31, STRESS PERIOD     68
 UBDSV06 SAVING          UZF-GWD IN MODEL DC_MF6           PACKAGE DC_MF6          CONNECTED TO MODEL DC_MF6           PACKAGE UZF              ON UNIT   1026 AT TIME STEP     31, STRESS PERIOD     68

 HEAD WILL BE SAVED ON UNIT 1027 AT END OF TIME STEP   31, STRESS PERIOD   68


  UZF BUDGET FOR ENTIRE MODEL AT END OF TIME STEP   31, STRESS PERIOD  68
  ------------------------------------------------------------------------------

     CUMULATIVE UZF      L**3       RATES FOR THIS TIME STEP      L**3/T
     ------------------                 ------------------------

           IN:                                      IN:
           ---                                      ---
                 GWF =           0.0000                   GWF =           0.0000
        INFILTRATION =    63853614.3447          INFILTRATION =       24925.5638
             REJ-INF =           0.0000               REJ-INF =           0.0000
             STORAGE =   334693278.9289               STORAGE =         527.7347

            TOTAL IN =   398546893.2736              TOTAL IN =       25453.2985

          OUT:                                     OUT:
          ----                                     ----
                 GWF =   169971447.7314                   GWF =       18775.7078
        INFILTRATION =           0.0000          INFILTRATION =           0.0000
             REJ-INF =    12443735.9822               REJ-INF =        5357.9384
             STORAGE =      671002.2475               STORAGE =           3.6873

           TOTAL OUT =   183086185.9611             TOTAL OUT =       24137.3336

            IN - OUT =   215460707.3125              IN - OUT =        1315.9650

 PERCENT DISCREPANCY =          74.09     PERCENT DISCREPANCY =           5.31



  VOLUME BUDGET FOR ENTIRE MODEL AT END OF TIME STEP   31, STRESS PERIOD  68
  ---------------------------------------------------------------------------------------------------

     CUMULATIVE VOLUME      L**3       RATES FOR THIS TIME STEP      L**3/T          PACKAGE NAME    
     ------------------                 ------------------------                     ----------------

           IN:                                      IN:
           ---                                      ---
              STO-SS =     4662846.8173                STO-SS =        1294.5483     STORAGE         
              STO-SY =   164596712.4243                STO-SY =       54478.9890     STORAGE         
                 DRN =           0.0000                   DRN =           0.0000     DRN             
                 RIV =           0.0000                   RIV =           0.0000     RIV             
                 GHB =    84655728.2059                   GHB =       41373.3301     GHB             
                 RCH =      908423.2967                   RCH =           0.0000     RCH             
                 CHD =           0.0000                   CHD =           0.0000     CHD             
           UZF-GWRCH =   169971447.7314             UZF-GWRCH =       18775.7078     UZF             
             UZF-GWD =           0.0000               UZF-GWD =           0.0000     UZF             

            TOTAL IN =   424795158.4756              TOTAL IN =      115922.5752

          OUT:                                     OUT:
          ----                                     ----
              STO-SS =     2914245.0965                STO-SS =          18.8141     STORAGE         
              STO-SY =   133563710.4813                STO-SY =        1087.2502     STORAGE         
                 DRN =   102596545.2107                   DRN =       40374.9047     DRN             
                 RIV =       18616.7065                   RIV =           6.8566     RIV             
                 GHB =    37687454.6530                   GHB =       15716.6329     GHB             
                 RCH =           0.0000                   RCH =           0.0000     RCH             
                 CHD =      227309.8247                   CHD =          84.7543     CHD             
           UZF-GWRCH =           0.0000             UZF-GWRCH =           0.0000     UZF             
             UZF-GWD =   147791948.1508               UZF-GWD =       58633.5067     UZF             

           TOTAL OUT =   424799830.1237             TOTAL OUT =      115922.7195

            IN - OUT =       -4671.6481              IN - OUT =          -0.1442

 PERCENT DISCREPANCY =          -0.00     PERCENT DISCREPANCY =          -0.00




         TIME SUMMARY AT END OF TIME STEP   31 IN STRESS PERIOD   68
                    SECONDS     MINUTES      HOURS       DAYS        YEARS
                    -----------------------------------------------------------
   TIME STEP LENGTH  86400.      1440.0      24.000      1.0000     2.73785E-03
 STRESS PERIOD TIME 2.67840E+06  44640.      744.00      31.000     8.48734E-02
         TOTAL TIME 1.78762E+08 2.97936E+06  49656.      2069.0      5.6646    


end timestep

