                                   MODFLOW 6
                U.S. GEOLOGICAL SURVEY MODULAR HYDROLOGIC MODEL
                            VERSION 6.2.0 10/22/2020

  MODFLOW 6 compiled Dec  5 2020 15:17:52 with GFORTRAN compiler (ver. 8.1.0)

This software has been approved for release by the U.S. Geological 
Survey (USGS). Although the software has been subjected to rigorous 
review, the USGS reserves the right to update the software as needed 
pursuant to further analysis and review. No warranty, expressed or 
implied, is made by the USGS or the U.S. Government as to the 
functionality of the software and related material nor shall the 
fact of release constitute any such warranty. Furthermore, the 
software is released on condition that neither the USGS nor the U.S. 
Government shall be held liable for any damages resulting from its 
authorized or unauthorized use. Also refer to the USGS Water 
Resources Software User Rights Notice for complete use, copyright, 
and distribution information.


System command used to initiate simulation:


MODFLOW was compiled using uniform precision.

Real Variables
  KIND: 8
  TINY (smallest non-zero value):    2.225074-308
  HUGE (largest value):    1.797693+308
  PRECISION: 15
  BIT SIZE: 64

Integer Variables
  KIND: 4
  HUGE (largest value): 2147483647
  BIT SIZE: 32

Long Integer Variables
  KIND: 8
  HUGE (largest value): 9223372036854775807
  BIT SIZE: 64

Logical Variables
  KIND: 4
  BIT SIZE: 32


 OPENED mfsim.nam
 FILE TYPE:NAM   UNIT 1001   STATUS:OLD                 
 FORMAT:FORMATTED              ACCESS:SEQUENTIAL          
 ACTION:READ                


 READING SIMULATION OPTIONS
 END OF SIMULATION OPTIONS

 READING SIMULATION TIMING

 OPENED DC_MF6.tdis
 FILE TYPE:TDIS   UNIT 1002   STATUS:OLD                 
 FORMAT:FORMATTED              ACCESS:SEQUENTIAL          
 ACTION:READ                


 TDIS -- TEMPORAL DISCRETIZATION PACKAGE,
 VERSION 1 : 11/13/2014 - INPUT READ FROM UNIT 1002
 PROCESSING TDIS OPTIONS
    SIMULATION TIME UNIT IS DAYS
    SIMULATION STARTING DATE AND TIME IS 2013-01-01                    
 END OF TDIS OPTIONS
 PROCESSING TDIS DIMENSIONS
   68 STRESS PERIOD(S) IN SIMULATION
 END OF TDIS DIMENSIONS
 PROCESSING TDIS PERIODDATA


 STRESS PERIOD     LENGTH       TIME STEPS     MULTIPLIER FOR DELT
 ----------------------------------------------------------------------------
        1         31.00000         31                    1.000
        2         28.00000         28                    1.000
        3         31.00000         31                    1.000
        4         30.00000         30                    1.000
        5         31.00000         31                    1.000
        6         30.00000         30                    1.000
        7         31.00000         31                    1.000
        8         31.00000         31                    1.000
        9         30.00000         30                    1.000
       10         31.00000         31                    1.000
       11         30.00000         30                    1.000
       12         31.00000         31                    1.000
       13         31.00000         31                    1.000
       14         28.00000         28                    1.000
       15         31.00000         31                    1.000
       16         30.00000         30                    1.000
       17         31.00000         31                    1.000
       18         30.00000         30                    1.000
       19         31.00000         31                    1.000
       20         31.00000         31                    1.000
       21         30.00000         30                    1.000
       22         31.00000         31                    1.000
       23         30.00000         30                    1.000
       24         31.00000         31                    1.000
       25         31.00000         31                    1.000
       26         28.00000         28                    1.000
       27         31.00000         31                    1.000
       28         30.00000         30                    1.000
       29         31.00000         31                    1.000
       30         30.00000         30                    1.000
       31         31.00000         31                    1.000
       32         31.00000         31                    1.000
       33         30.00000         30                    1.000
       34         31.00000         31                    1.000
       35         30.00000         30                    1.000
       36         31.00000         31                    1.000
       37         31.00000         31                    1.000
       38         29.00000         29                    1.000
       39         31.00000         31                    1.000
       40         30.00000         30                    1.000
       41         31.00000         31                    1.000
       42         30.00000         30                    1.000
       43         31.00000         31                    1.000
       44         31.00000         31                    1.000
       45         30.00000         30                    1.000
       46         31.00000         31                    1.000
       47         30.00000         30                    1.000
       48         31.00000         31                    1.000
       49         31.00000         31                    1.000
       50         28.00000         28                    1.000
       51         31.00000         31                    1.000
       52         30.00000         30                    1.000
       53         31.00000         31                    1.000
       54         30.00000         30                    1.000
       55         31.00000         31                    1.000
       56         31.00000         31                    1.000
       57         30.00000         30                    1.000
       58         31.00000         31                    1.000
       59         30.00000         30                    1.000
       60         31.00000         31                    1.000
       61         31.00000         31                    1.000
       62         28.00000         28                    1.000
       63         31.00000         31                    1.000
       64         30.00000         30                    1.000
       65         31.00000         31                    1.000
       66         30.00000         30                    1.000
       67         31.00000         31                    1.000
       68         31.00000         31                    1.000
 END OF TDIS PERIODDATA
 END OF SIMULATION TIMING

 READING SIMULATION MODELS
    GWF6 model DC_MF6 will be created as model 1
 END OF SIMULATION MODELS

 READING SIMULATION EXCHANGES
 END OF SIMULATION EXCHANGES

 READING SOLUTIONGROUP

 Creating solution: SLN_1           

 OPENED DC_MF6.ims
 FILE TYPE:IMS   UNIT 1017   STATUS:OLD                 
 FORMAT:FORMATTED              ACCESS:SEQUENTIAL          
 ACTION:READ                

 END OF SIMULATION SOLUTIONGROUP

 IMS -- ITERATIVE MODEL SOLUTION PACKAGE, VERSION 6, 4/28/2017
         INPUT READ FROM UNIT 1017

 PROCESSING IMS OPTIONS
 COMPLEX OPTION:
 DEFAULT SOLVER INPUT VALUES REFLECT STRONGLY NONLINEAR MODEL
 END OF IMS OPTIONS

 PROCESSING IMS NONLINEAR
 END OF IMS NONLINEAR DATA
 **UNDER-RELAXATION WILL BE USED***

 ***IMS LINEAR SOLVER WILL BE USED***

 IMSLINEAR -- UNSTRUCTURED LINEAR SOLUTION PACKAGE, VERSION 8, 04/28/2017

 PROCESSING LINEAR DATA
 END OF LINEAR DATA

 OUTER ITERATION CONVERGENCE CRITERION    (DVCLOSE) =    0.100000E-01
 MAXIMUM NUMBER OF OUTER ITERATIONS        (MXITER) = 500
 SOLVER PRINTOUT INDEX                     (IPRIMS) = 1
 NONLINEAR ITERATION METHOD            (NONLINMETH) = 3
 LINEAR SOLUTION METHOD                   (LINMETH) = 1
 UNDER-RELAXATION WEIGHT REDUCTION FACTOR   (THETA) =    0.800000E+00
 UNDER-RELAXATION WEIGHT INCREASE INCREMENT (KAPPA) =    0.100000E-03
 UNDER-RELAXATION PREVIOUS HISTORY FACTOR   (GAMMA) =    0.000000E+00
 UNDER-RELAXATION MOMENTUM TERM         (AMOMENTUM) =    0.000000E+00
 MAXIMUM NUMBER OF BACKTRACKS            (NUMTRACK) = 20
 BACKTRACKING TOLERANCE FACTOR               (BTOL) =    0.105000E+01
 BACKTRACKING REDUCTION FACTOR             (BREDUC) =    0.100000E+00
 BACKTRACKING RESIDUAL LIMIT              (RES_LIM) =    0.200000E-02

       SOLUTION BY THE BICONJUGATE-GRADIENT STABILIZED METHOD
 ------------------------------------------------------------------
 MAXIMUM OF 500 CALLS OF SOLUTION ROUTINE
 MAXIMUM OF 100 INTERNAL ITERATIONS PER CALL TO SOLUTION ROUTINE
 LINEAR ACCELERATION METHOD            = BCGS      
 MATRIX PRECONDITIONING TYPE           = INCOMPLETE LUT      
 MATRIX SCALING APPROACH               = NO SCALING          
 MATRIX REORDERING APPROACH            = ORIGINAL ORDERING        
 NUMBER OF ORTHOGONALIZATIONS          = 2
 HEAD CHANGE CRITERION FOR CLOSURE     =    0.10000E-01
 RESIDUAL CHANGE CRITERION FOR CLOSURE =    0.10000E-01
 RESIDUAL CONVERGENCE OPTION           = 0
 RESIDUAL CONVERGENCE NORM             = INFINITY NORM   
 RELAXATION FACTOR                     =    0.00000E+00
 NUMBER OF LEVELS                      =              5
 DROP TOLERANCE                        =    0.10000E-03


1
                            STRESS PERIOD NO.    1, LENGTH =   31.00000    
                            -----------------------------------------------

                              NUMBER OF TIME STEPS =    31

                               MULTIPLIER FOR DELT =     1.000

                            INITIAL TIME STEP SIZE =   1.000000    

 OUTER ITERATION SUMMARY
 ----------------------------------------------------------------------------------------------------------------------------------------------------------------
                                OUTER      INNER  BACKTRACK  BACKTRACK        INCOMING        OUTGOING                    STEP   MAXIMUM CHANGE MODEL-(CELLID) OR
 OUTER ITERATION STEP       ITERATION  ITERATION       FLAG ITERATIONS        RESIDUAL        RESIDUAL  MAXIMUM CHANGE SUCCESS             MODEL-PACKAGE-(NUMBER)
 ----------------------------------------------------------------------------------------------------------------------------------------------------------------
 Backtracking                       1                     0          0       2044261.3       2044261.3                       *                                   
 Model                              1         10                                                            -11.126420                            1_GWF-(5,11715)
 Backtracking                       2                     1          1       2896831.4       1842191.2                                                           
 Model                              2         10                                                             7.7971054                            1_GWF-(6,11566)
 Backtracking                       3                     0          0       684336.07       684336.07                       *                                   
 Model                              3          6                                                             8.8011177                             1_GWF-(3,3083)
 Backtracking                       4                     0          0       274973.99       274973.99                       *                                   
 Model                              4          3                                                             2.0183314                             1_GWF-(3,4331)
 Backtracking                       5                     0          0       108176.21       108176.21                       *                                   
 Model                              5          2                                                            0.40460308                             1_GWF-(3,4333)
 Backtracking                       6                     0          0       43315.051       43315.051                       *                                   
 Model                              6          2                                                             2.7957940                             1_GWF-(3,4333)
 Backtracking                       7                     0          0       16611.416       16611.416                       *                                   
 Model                              7          2                                                            0.28516611                             1_GWF-(3,4330)
 Backtracking                       8                     0          0       6331.0747       6331.0747                       *                                   
 Model                              8          2                                                        1.48686158E-02                             1_GWF-(3,4333)
 Backtracking                       9                     0          0       2300.5818       2300.5818                       *                                   
 Model                              9          2                                                       -5.36684818E-03       *                     1_GWF-(5,5534)
 ----------------------------------------------------------------------------------------------------------------------------------------------------------------


 9 CALLS TO NUMERICAL SOLUTION IN TIME STEP 1 STRESS PERIOD 1
 39 TOTAL ITERATIONS

 OUTER ITERATION SUMMARY
 ----------------------------------------------------------------------------------------------------------------------------------------------------------------
                                OUTER      INNER  BACKTRACK  BACKTRACK        INCOMING        OUTGOING                    STEP   MAXIMUM CHANGE MODEL-(CELLID) OR
 OUTER ITERATION STEP       ITERATION  ITERATION       FLAG ITERATIONS        RESIDUAL        RESIDUAL  MAXIMUM CHANGE SUCCESS             MODEL-PACKAGE-(NUMBER)
 ----------------------------------------------------------------------------------------------------------------------------------------------------------------
 Backtracking                       1                     0          0       617617.01       617617.01                       *                                   
 Model                              1         11                                                            -1.8717140                            1_GWF-(6,11595)
 Backtracking                       2                     0          0       80401.784       80401.784                       *                                   
 Model                              2          7                                                            0.36616075                            1_GWF-(6,11128)
 Backtracking                       3                     0          0       20027.287       20027.287                       *                                   
 Model                              3          3                                                        7.31868365E-02                            1_GWF-(6,11128)
 Backtracking                       4                     0          0       7397.9044       7397.9044                       *                                   
 Model                              4          2                                                        1.46282823E-02                            1_GWF-(6,11128)
 Backtracking                       5                     0          0       2832.0709       2832.0709                       *                                   
 Model                              5          1                                                       -8.99462911E-03       *                     1_GWF-(5,8184)
 ----------------------------------------------------------------------------------------------------------------------------------------------------------------


 5 CALLS TO NUMERICAL SOLUTION IN TIME STEP 2 STRESS PERIOD 1
 24 TOTAL ITERATIONS

 OUTER ITERATION SUMMARY
 ----------------------------------------------------------------------------------------------------------------------------------------------------------------
                                OUTER      INNER  BACKTRACK  BACKTRACK        INCOMING        OUTGOING                    STEP   MAXIMUM CHANGE MODEL-(CELLID) OR
 OUTER ITERATION STEP       ITERATION  ITERATION       FLAG ITERATIONS        RESIDUAL        RESIDUAL  MAXIMUM CHANGE SUCCESS             MODEL-PACKAGE-(NUMBER)
 ----------------------------------------------------------------------------------------------------------------------------------------------------------------
 Backtracking                       1                     0          0       542945.92       542945.92                       *                                   
 Model                              1         10                                                            -1.2249147                            1_GWF-(6,11595)
 Backtracking                       2                     1          1       3080083.6       494029.27                                                           
 Model                              2         10                                                             1.4598029                             1_GWF-(3,3063)
 Backtracking                       3                     0          0       294134.47       294134.47                       *                                   
 Model                              3          5                                                            0.55023812                             1_GWF-(6,9694)
 Backtracking                       4                     0          0       115328.02       115328.02                       *                                   
 Model                              4          2                                                        3.79243439E-02                             1_GWF-(3,3546)
 Backtracking                       5                     0          0       45565.094       45565.094                       *                                   
 Model                              5          2                                                       -1.79383719E-02                             1_GWF-(5,6675)
 Backtracking                       6                     0          0       17883.059       17883.059                       *                                   
 Model                              6          2                                                       -1.28002205E-02                             1_GWF-(5,6675)
 Backtracking                       7                     0          0       6911.9857       6911.9857                       *                                   
 Model                              7          2                                                       -8.84804586E-03       *                     1_GWF-(5,6675)
 ----------------------------------------------------------------------------------------------------------------------------------------------------------------


 7 CALLS TO NUMERICAL SOLUTION IN TIME STEP 3 STRESS PERIOD 1
 33 TOTAL ITERATIONS

 OUTER ITERATION SUMMARY
 ----------------------------------------------------------------------------------------------------------------------------------------------------------------
                                OUTER      INNER  BACKTRACK  BACKTRACK        INCOMING        OUTGOING                    STEP   MAXIMUM CHANGE MODEL-(CELLID) OR
 OUTER ITERATION STEP       ITERATION  ITERATION       FLAG ITERATIONS        RESIDUAL        RESIDUAL  MAXIMUM CHANGE SUCCESS             MODEL-PACKAGE-(NUMBER)
 ----------------------------------------------------------------------------------------------------------------------------------------------------------------
 Backtracking                       1                     0          0       403302.38       403302.38                       *                                   
 Model                              1         11                                                             2.1636554                             1_GWF-(3,9635)
 Backtracking                       2                     0          0       420536.10       420536.10                       *                                   
 Model                              2          6                                                            0.40434655                            1_GWF-(6,10659)
 Backtracking                       3                     0          0       167013.97       167013.97                       *                                   
 Model                              3          2                                                       -3.04990893E-02                             1_GWF-(5,6667)
 Backtracking                       4                     0          0       66246.521       66246.521                       *                                   
 Model                              4          2                                                       -2.20010749E-02                             1_GWF-(5,6667)
 Backtracking                       5                     0          0       26128.531       26128.531                       *                                   
 Model                              5          2                                                       -1.57787595E-02                             1_GWF-(5,6667)
 Backtracking                       6                     0          0       10196.520       10196.520                       *                                   
 Model                              6          2                                                       -1.10798082E-02                             1_GWF-(5,6667)
 Backtracking                       7                     0          0       3886.0309       3886.0309                       *                                   
 Model                              7          2                                                       -7.35742644E-03       *                     1_GWF-(5,6667)
 ----------------------------------------------------------------------------------------------------------------------------------------------------------------


 7 CALLS TO NUMERICAL SOLUTION IN TIME STEP 4 STRESS PERIOD 1
 27 TOTAL ITERATIONS

 OUTER ITERATION SUMMARY
 ----------------------------------------------------------------------------------------------------------------------------------------------------------------
                                OUTER      INNER  BACKTRACK  BACKTRACK        INCOMING        OUTGOING                    STEP   MAXIMUM CHANGE MODEL-(CELLID) OR
 OUTER ITERATION STEP       ITERATION  ITERATION       FLAG ITERATIONS        RESIDUAL        RESIDUAL  MAXIMUM CHANGE SUCCESS             MODEL-PACKAGE-(NUMBER)
 ----------------------------------------------------------------------------------------------------------------------------------------------------------------
 Backtracking                       1                     0          0       288461.06       288461.06                       *                                   
 Model                              1         11                                                            -1.0268249                             1_GWF-(3,9653)
 Backtracking                       2                     0          0       61475.600       61475.600                       *                                   
 Model                              2          5                                                            0.44395265                             1_GWF-(3,3522)
 Backtracking                       3                     0          0       22075.361       22075.361                       *                                   
 Model                              3          2                                                        5.09183445E-02                             1_GWF-(3,3528)
 Backtracking                       4                     0          0       8535.9098       8535.9098                       *                                   
 Model                              4          2                                                        1.18392237E-02                             1_GWF-(3,3528)
 Backtracking                       5                     0          0       3224.4230       3224.4230                       *                                   
 Model                              5          2                                                       -4.23238085E-03       *                     1_GWF-(4,4224)
 ----------------------------------------------------------------------------------------------------------------------------------------------------------------


 5 CALLS TO NUMERICAL SOLUTION IN TIME STEP 5 STRESS PERIOD 1
 22 TOTAL ITERATIONS

 OUTER ITERATION SUMMARY
 ----------------------------------------------------------------------------------------------------------------------------------------------------------------
                                OUTER      INNER  BACKTRACK  BACKTRACK        INCOMING        OUTGOING                    STEP   MAXIMUM CHANGE MODEL-(CELLID) OR
 OUTER ITERATION STEP       ITERATION  ITERATION       FLAG ITERATIONS        RESIDUAL        RESIDUAL  MAXIMUM CHANGE SUCCESS             MODEL-PACKAGE-(NUMBER)
 ----------------------------------------------------------------------------------------------------------------------------------------------------------------
 Backtracking                       1                     0          0       213314.62       213314.62                       *                                   
 Model                              1         11                                                            -1.1440801                             1_GWF-(3,9653)
 Backtracking                       2                     1          1       1154860.5       193662.66                                                           
 Model                              2         10                                                            -1.0296721                             1_GWF-(3,9653)
 Backtracking                       3                     1          1       882751.10       175799.17                                                           
 Model                              3         10                                                           -0.92670491                             1_GWF-(3,9653)
 Backtracking                       4                     0          0       14025.993       14025.993                       *                                   
 Model                              4          4                                                            0.19092761                            1_GWF-(6,10659)
 Backtracking                       5                     0          0       1189.3985       1189.3985                       *                                   
 Model                              5          2                                                        3.81845709E-02                            1_GWF-(6,10659)
 Backtracking                       6                     0          0       119.90035       119.90035                       *                                   
 Model                              6          1                                                        7.63261768E-03       *                    1_GWF-(6,10659)
 ----------------------------------------------------------------------------------------------------------------------------------------------------------------


 6 CALLS TO NUMERICAL SOLUTION IN TIME STEP 6 STRESS PERIOD 1
 38 TOTAL ITERATIONS

 OUTER ITERATION SUMMARY
 ----------------------------------------------------------------------------------------------------------------------------------------------------------------
                                OUTER      INNER  BACKTRACK  BACKTRACK        INCOMING        OUTGOING                    STEP   MAXIMUM CHANGE MODEL-(CELLID) OR
 OUTER ITERATION STEP       ITERATION  ITERATION       FLAG ITERATIONS        RESIDUAL        RESIDUAL  MAXIMUM CHANGE SUCCESS             MODEL-PACKAGE-(NUMBER)
 ----------------------------------------------------------------------------------------------------------------------------------------------------------------
 Backtracking                       1                     0          0       167064.72       167064.72                       *                                   
 Model                              1         10                                                           -0.67245518                            1_GWF-(5,11017)
 Backtracking                       2                     0          0       57873.139       57873.139                       *                                   
 Model                              2          4                                                        9.32017244E-02                             1_GWF-(3,6280)
 Backtracking                       3                     0          0       22361.976       22361.976                       *                                   
 Model                              3          2                                                            0.24007788                             1_GWF-(4,8198)
 Backtracking                       4                     0          0       8777.0363       8777.0363                       *                                   
 Model                              4          2                                                        2.17280030E-02                             1_GWF-(4,8198)
 Backtracking                       5                     0          0       3400.1119       3400.1119                       *                                   
 Model                              5          2                                                       -7.47983428E-03       *                     1_GWF-(5,6075)
 ----------------------------------------------------------------------------------------------------------------------------------------------------------------


 5 CALLS TO NUMERICAL SOLUTION IN TIME STEP 7 STRESS PERIOD 1
 20 TOTAL ITERATIONS

 OUTER ITERATION SUMMARY
 ----------------------------------------------------------------------------------------------------------------------------------------------------------------
                                OUTER      INNER  BACKTRACK  BACKTRACK        INCOMING        OUTGOING                    STEP   MAXIMUM CHANGE MODEL-(CELLID) OR
 OUTER ITERATION STEP       ITERATION  ITERATION       FLAG ITERATIONS        RESIDUAL        RESIDUAL  MAXIMUM CHANGE SUCCESS             MODEL-PACKAGE-(NUMBER)
 ----------------------------------------------------------------------------------------------------------------------------------------------------------------
 Backtracking                       1                     0          0       140290.83       140290.83                       *                                   
 Model                              1         11                                                           -0.62442836                            1_GWF-(5,11020)
 Backtracking                       2                     0          0       57952.688       57952.688                       *                                   
 Model                              2          4                                                            0.40520798                             1_GWF-(5,6975)
 Backtracking                       3                     0          0       22548.591       22548.591                       *                                   
 Model                              3          2                                                        3.26343040E-02                             1_GWF-(6,9772)
 Backtracking                       4                     0          0       8851.7656       8851.7656                       *                                   
 Model                              4          2                                                       -1.08318240E-02                             1_GWF-(5,6067)
 Backtracking                       5                     0          0       3428.2534       3428.2534                       *                                   
 Model                              5          1                                                       -7.49506138E-03       *                     1_GWF-(5,6067)
 ----------------------------------------------------------------------------------------------------------------------------------------------------------------


 5 CALLS TO NUMERICAL SOLUTION IN TIME STEP 8 STRESS PERIOD 1
 20 TOTAL ITERATIONS

 OUTER ITERATION SUMMARY
 ----------------------------------------------------------------------------------------------------------------------------------------------------------------
                                OUTER      INNER  BACKTRACK  BACKTRACK        INCOMING        OUTGOING                    STEP   MAXIMUM CHANGE MODEL-(CELLID) OR
 OUTER ITERATION STEP       ITERATION  ITERATION       FLAG ITERATIONS        RESIDUAL        RESIDUAL  MAXIMUM CHANGE SUCCESS             MODEL-PACKAGE-(NUMBER)
 ----------------------------------------------------------------------------------------------------------------------------------------------------------------
 Backtracking                       1                     0          0       125563.81       125563.81                       *                                   
 Model                              1         10                                                             12.862139                             1_GWF-(3,9635)
 Backtracking                       2                     0          0       8963.1203       8963.1203                       *                                   
 Model                              2          7                                                            -2.1801789                            1_GWF-(5,11532)
 Backtracking                       3                     0          0       769.43389       769.43389                       *                                   
 Model                              3          2                                                           -0.43722306                            1_GWF-(5,11532)
 Backtracking                       4                     0          0       123.06531       123.06531                       *                                   
 Model                              4          2                                                       -8.74617058E-02                            1_GWF-(5,11532)
 Backtracking                       5                     0          0       54.545394       54.545394                       *                                   
 Model                              5          2                                                        2.71371486E-02                             1_GWF-(5,6713)
 Backtracking                       6                     4          0       70.429183       70.429183                       *                                   
 Model                              6          2                                                       -1.70466120E-02                             1_GWF-(5,6713)
 Backtracking                       7                     0          0       54.073859       54.073859                       *                                   
 Model                              7          2                                                       -1.00634529E-02                             1_GWF-(5,6713)
 Backtracking                       8                     0          0       45.556272       45.556272                       *                                   
 Model                              8          2                                                       -5.93989664E-03       *                     1_GWF-(5,6713)
 ----------------------------------------------------------------------------------------------------------------------------------------------------------------


 8 CALLS TO NUMERICAL SOLUTION IN TIME STEP 9 STRESS PERIOD 1
 29 TOTAL ITERATIONS

 OUTER ITERATION SUMMARY
 ----------------------------------------------------------------------------------------------------------------------------------------------------------------
                                OUTER      INNER  BACKTRACK  BACKTRACK        INCOMING        OUTGOING                    STEP   MAXIMUM CHANGE MODEL-(CELLID) OR
 OUTER ITERATION STEP       ITERATION  ITERATION       FLAG ITERATIONS        RESIDUAL        RESIDUAL  MAXIMUM CHANGE SUCCESS             MODEL-PACKAGE-(NUMBER)
 ----------------------------------------------------------------------------------------------------------------------------------------------------------------
 Backtracking                       1                     0          0       104841.28       104841.28                       *                                   
 Model                              1         10                                                             2.1358689                             1_GWF-(3,9635)
 Backtracking                       2                     0          0       7890.3008       7890.3008                       *                                   
 Model                              2          4                                                           -0.76392261                            1_GWF-(4,12247)
 Backtracking                       3                     0          0       1265.2154       1265.2154                       *                                   
 Model                              3          2                                                           -0.15283546                            1_GWF-(4,12247)
 Backtracking                       4                     0          0       410.31081       410.31081                       *                                   
 Model                              4          2                                                       -3.05540299E-02                            1_GWF-(4,12247)
 Backtracking                       5                     0          0       142.69834       142.69834                       *                                   
 Model                              5          1                                                       -6.10478528E-03       *                    1_GWF-(4,12247)
 ----------------------------------------------------------------------------------------------------------------------------------------------------------------


 5 CALLS TO NUMERICAL SOLUTION IN TIME STEP 10 STRESS PERIOD 1
 19 TOTAL ITERATIONS

 OUTER ITERATION SUMMARY
 ----------------------------------------------------------------------------------------------------------------------------------------------------------------
                                OUTER      INNER  BACKTRACK  BACKTRACK        INCOMING        OUTGOING                    STEP   MAXIMUM CHANGE MODEL-(CELLID) OR
 OUTER ITERATION STEP       ITERATION  ITERATION       FLAG ITERATIONS        RESIDUAL        RESIDUAL  MAXIMUM CHANGE SUCCESS             MODEL-PACKAGE-(NUMBER)
 ----------------------------------------------------------------------------------------------------------------------------------------------------------------
 Backtracking                       1                     0          0       86081.507       86081.507                       *                                   
 Model                              1         10                                                            -15.020886                             1_GWF-(3,9635)
 Backtracking                       2                     0          0       5774.7912       5774.7912                       *                                   
 Model                              2          3                                                            -4.5657522                            1_GWF-(3,12247)
 Backtracking                       3                     0          0       518.32449       518.32449                       *                                   
 Model                              3          2                                                            0.14347085                            1_GWF-(6,10659)
 Backtracking                       4                     0          0       84.866288       84.866288                       *                                   
 Model                              4          2                                                        2.86793233E-02                            1_GWF-(6,10659)
 Backtracking                       5                     0          0       41.131472       41.131472                       *                                   
 Model                              5          1                                                        5.73005708E-03       *                    1_GWF-(6,10659)
 ----------------------------------------------------------------------------------------------------------------------------------------------------------------


 5 CALLS TO NUMERICAL SOLUTION IN TIME STEP 11 STRESS PERIOD 1
 18 TOTAL ITERATIONS

 OUTER ITERATION SUMMARY
 ----------------------------------------------------------------------------------------------------------------------------------------------------------------
                                OUTER      INNER  BACKTRACK  BACKTRACK        INCOMING        OUTGOING                    STEP   MAXIMUM CHANGE MODEL-(CELLID) OR
 OUTER ITERATION STEP       ITERATION  ITERATION       FLAG ITERATIONS        RESIDUAL        RESIDUAL  MAXIMUM CHANGE SUCCESS             MODEL-PACKAGE-(NUMBER)
 ----------------------------------------------------------------------------------------------------------------------------------------------------------------
 Backtracking                       1                     0          0       70559.541       70559.541                       *                                   
 Model                              1          9                                                           -0.76381331                            1_GWF-(4,12247)
 Backtracking                       2                     0          0       4311.5800       4311.5800                       *                                   
 Model                              2          4                                                            -1.2127770                            1_GWF-(5,11530)
 Backtracking                       3                     0          0       276.19965       276.19965                       *                                   
 Model                              3          1                                                        7.34931192E-04       *                    1_GWF-(6,10908)
 ----------------------------------------------------------------------------------------------------------------------------------------------------------------


 3 CALLS TO NUMERICAL SOLUTION IN TIME STEP 12 STRESS PERIOD 1
 14 TOTAL ITERATIONS

 OUTER ITERATION SUMMARY
 ----------------------------------------------------------------------------------------------------------------------------------------------------------------
                                OUTER      INNER  BACKTRACK  BACKTRACK        INCOMING        OUTGOING                    STEP   MAXIMUM CHANGE MODEL-(CELLID) OR
 OUTER ITERATION STEP       ITERATION  ITERATION       FLAG ITERATIONS        RESIDUAL        RESIDUAL  MAXIMUM CHANGE SUCCESS             MODEL-PACKAGE-(NUMBER)
 ----------------------------------------------------------------------------------------------------------------------------------------------------------------
 Backtracking                       1                     0          0       61532.769       61532.769                       *                                   
 Model                              1          9                                                           -0.48703238                            1_GWF-(6,11748)
 Backtracking                       2                     0          0       3980.9713       3980.9713                       *                                   
 Model                              2          2                                                           -0.44437472                            1_GWF-(5,11532)
 Backtracking                       3                     0          0       436.37340       436.37340                       *                                   
 Model                              3          2                                                        2.11703860E-02                            1_GWF-(6,10825)
 Backtracking                       4                     0          0       85.835960       85.835960                       *                                   
 Model                              4          2                                                        4.23199664E-03       *                    1_GWF-(6,10825)
 ----------------------------------------------------------------------------------------------------------------------------------------------------------------


 4 CALLS TO NUMERICAL SOLUTION IN TIME STEP 13 STRESS PERIOD 1
 15 TOTAL ITERATIONS

 OUTER ITERATION SUMMARY
 ----------------------------------------------------------------------------------------------------------------------------------------------------------------
                                OUTER      INNER  BACKTRACK  BACKTRACK        INCOMING        OUTGOING                    STEP   MAXIMUM CHANGE MODEL-(CELLID) OR
 OUTER ITERATION STEP       ITERATION  ITERATION       FLAG ITERATIONS        RESIDUAL        RESIDUAL  MAXIMUM CHANGE SUCCESS             MODEL-PACKAGE-(NUMBER)
 ----------------------------------------------------------------------------------------------------------------------------------------------------------------
 Backtracking                       1                     0          0       55186.492       55186.492                       *                                   
 Model                              1          9                                                            -1.3879139                            1_GWF-(5,11532)
 Backtracking                       2                     0          0       3761.1556       3761.1556                       *                                   
 Model                              2          2                                                        9.32564484E-03       *                     1_GWF-(4,8198)
 ----------------------------------------------------------------------------------------------------------------------------------------------------------------


 2 CALLS TO NUMERICAL SOLUTION IN TIME STEP 14 STRESS PERIOD 1
 11 TOTAL ITERATIONS

 OUTER ITERATION SUMMARY
 ----------------------------------------------------------------------------------------------------------------------------------------------------------------
                                OUTER      INNER  BACKTRACK  BACKTRACK        INCOMING        OUTGOING                    STEP   MAXIMUM CHANGE MODEL-(CELLID) OR
 OUTER ITERATION STEP       ITERATION  ITERATION       FLAG ITERATIONS        RESIDUAL        RESIDUAL  MAXIMUM CHANGE SUCCESS             MODEL-PACKAGE-(NUMBER)
 ----------------------------------------------------------------------------------------------------------------------------------------------------------------
 Backtracking                       1                     0          0       51479.220       51479.220                       *                                   
 Model                              1          8                                                           -0.44508220                            1_GWF-(6,11748)
 Backtracking                       2                     0          0       2740.9722       2740.9722                       *                                   
 Model                              2          2                                                        9.83525117E-02                            1_GWF-(6,11553)
 Backtracking                       3                     0          0       159.90927       159.90927                       *                                   
 Model                              3          2                                                        1.96698784E-02                            1_GWF-(6,11553)
 Backtracking                       4                     0          0       41.147622       41.147622                       *                                   
 Model                              4          1                                                        3.93188820E-03       *                    1_GWF-(6,11553)
 ----------------------------------------------------------------------------------------------------------------------------------------------------------------


 4 CALLS TO NUMERICAL SOLUTION IN TIME STEP 15 STRESS PERIOD 1
 13 TOTAL ITERATIONS

 OUTER ITERATION SUMMARY
 ----------------------------------------------------------------------------------------------------------------------------------------------------------------
                                OUTER      INNER  BACKTRACK  BACKTRACK        INCOMING        OUTGOING                    STEP   MAXIMUM CHANGE MODEL-(CELLID) OR
 OUTER ITERATION STEP       ITERATION  ITERATION       FLAG ITERATIONS        RESIDUAL        RESIDUAL  MAXIMUM CHANGE SUCCESS             MODEL-PACKAGE-(NUMBER)
 ----------------------------------------------------------------------------------------------------------------------------------------------------------------
 Backtracking                       1                     0          0       50150.035       50150.035                       *                                   
 Model                              1          8                                                           -0.42500073                            1_GWF-(6,11748)
 Backtracking                       2                     0          0       2546.4569       2546.4569                       *                                   
 Model                              2          2                                                            0.10735841                            1_GWF-(6,10905)
 Backtracking                       3                     0          0       141.14356       141.14356                       *                                   
 Model                              3          2                                                        2.14691612E-02                            1_GWF-(6,10905)
 Backtracking                       4                     0          0       38.908356       38.908356                       *                                   
 Model                              4          1                                                        4.29151429E-03       *                    1_GWF-(6,10905)
 ----------------------------------------------------------------------------------------------------------------------------------------------------------------


 4 CALLS TO NUMERICAL SOLUTION IN TIME STEP 16 STRESS PERIOD 1
 13 TOTAL ITERATIONS

 OUTER ITERATION SUMMARY
 ----------------------------------------------------------------------------------------------------------------------------------------------------------------
                                OUTER      INNER  BACKTRACK  BACKTRACK        INCOMING        OUTGOING                    STEP   MAXIMUM CHANGE MODEL-(CELLID) OR
 OUTER ITERATION STEP       ITERATION  ITERATION       FLAG ITERATIONS        RESIDUAL        RESIDUAL  MAXIMUM CHANGE SUCCESS             MODEL-PACKAGE-(NUMBER)
 ----------------------------------------------------------------------------------------------------------------------------------------------------------------
 Backtracking                       1                     0          0       48855.271       48855.271                       *                                   
 Model                              1          8                                                           -0.40574711                            1_GWF-(6,11748)
 Backtracking                       2                     0          0       2533.1900       2533.1900                       *                                   
 Model                              2          2                                                            0.35872071                             1_GWF-(4,3968)
 Backtracking                       3                     0          0       193.58073       193.58073                       *                                   
 Model                              3          1                                                        8.74391609E-03       *                    1_GWF-(6,11692)
 ----------------------------------------------------------------------------------------------------------------------------------------------------------------


 3 CALLS TO NUMERICAL SOLUTION IN TIME STEP 17 STRESS PERIOD 1
 11 TOTAL ITERATIONS

 OUTER ITERATION SUMMARY
 ----------------------------------------------------------------------------------------------------------------------------------------------------------------
                                OUTER      INNER  BACKTRACK  BACKTRACK        INCOMING        OUTGOING                    STEP   MAXIMUM CHANGE MODEL-(CELLID) OR
 OUTER ITERATION STEP       ITERATION  ITERATION       FLAG ITERATIONS        RESIDUAL        RESIDUAL  MAXIMUM CHANGE SUCCESS             MODEL-PACKAGE-(NUMBER)
 ----------------------------------------------------------------------------------------------------------------------------------------------------------------
 Backtracking                       1                     0          0       48001.434       48001.434                       *                                   
 Model                              1          7                                                            0.83885876                             1_GWF-(4,3968)
 Backtracking                       2                     0          0       3296.8546       3296.8546                       *                                   
 Model                              2          3                                                            0.12815709                             1_GWF-(5,7038)
 Backtracking                       3                     0          0       405.11435       405.11435                       *                                   
 Model                              3          2                                                        2.23010610E-03       *                     1_GWF-(6,9766)
 ----------------------------------------------------------------------------------------------------------------------------------------------------------------


 3 CALLS TO NUMERICAL SOLUTION IN TIME STEP 18 STRESS PERIOD 1
 12 TOTAL ITERATIONS

 OUTER ITERATION SUMMARY
 ----------------------------------------------------------------------------------------------------------------------------------------------------------------
                                OUTER      INNER  BACKTRACK  BACKTRACK        INCOMING        OUTGOING                    STEP   MAXIMUM CHANGE MODEL-(CELLID) OR
 OUTER ITERATION STEP       ITERATION  ITERATION       FLAG ITERATIONS        RESIDUAL        RESIDUAL  MAXIMUM CHANGE SUCCESS             MODEL-PACKAGE-(NUMBER)
 ----------------------------------------------------------------------------------------------------------------------------------------------------------------
 Backtracking                       1                     0          0       46601.666       46601.666                       *                                   
 Model                              1          8                                                           -0.36996450                            1_GWF-(6,11748)
 Backtracking                       2                     0          0       2455.5164       2455.5164                       *                                   
 Model                              2          3                                                        8.59548711E-02                              1_GWF-(3,217)
 Backtracking                       3                     0          0       134.79910       134.79910                       *                                   
 Model                              3          2                                                        1.97636521E-03       *                     1_GWF-(6,9774)
 ----------------------------------------------------------------------------------------------------------------------------------------------------------------


 3 CALLS TO NUMERICAL SOLUTION IN TIME STEP 19 STRESS PERIOD 1
 13 TOTAL ITERATIONS

 OUTER ITERATION SUMMARY
 ----------------------------------------------------------------------------------------------------------------------------------------------------------------
                                OUTER      INNER  BACKTRACK  BACKTRACK        INCOMING        OUTGOING                    STEP   MAXIMUM CHANGE MODEL-(CELLID) OR
 OUTER ITERATION STEP       ITERATION  ITERATION       FLAG ITERATIONS        RESIDUAL        RESIDUAL  MAXIMUM CHANGE SUCCESS             MODEL-PACKAGE-(NUMBER)
 ----------------------------------------------------------------------------------------------------------------------------------------------------------------
 Backtracking                       1                     0          0       45089.076       45089.076                       *                                   
 Model                              1          7                                                            0.51175843                              1_GWF-(3,217)
 Backtracking                       2                     0          0       2267.3237       2267.3237                       *                                   
 Model                              2          2                                                            0.56510915                             1_GWF-(4,3938)
 Backtracking                       3                     0          0       124.89712       124.89712                       *                                   
 Model                              3          2                                                        1.04317214E-02                             1_GWF-(6,9783)
 Backtracking                       4                     0          0       38.682282       38.682282                       *                                   
 Model                              4          1                                                        2.08497463E-03       *                     1_GWF-(6,9783)
 ----------------------------------------------------------------------------------------------------------------------------------------------------------------


 4 CALLS TO NUMERICAL SOLUTION IN TIME STEP 20 STRESS PERIOD 1
 12 TOTAL ITERATIONS

 OUTER ITERATION SUMMARY
 ----------------------------------------------------------------------------------------------------------------------------------------------------------------
                                OUTER      INNER  BACKTRACK  BACKTRACK        INCOMING        OUTGOING                    STEP   MAXIMUM CHANGE MODEL-(CELLID) OR
 OUTER ITERATION STEP       ITERATION  ITERATION       FLAG ITERATIONS        RESIDUAL        RESIDUAL  MAXIMUM CHANGE SUCCESS             MODEL-PACKAGE-(NUMBER)
 ----------------------------------------------------------------------------------------------------------------------------------------------------------------
 Backtracking                       1                     0          0       43049.949       43049.949                       *                                   
 Model                              1          8                                                            0.53218316                             1_GWF-(4,3938)
 Backtracking                       2                     0          0       2571.8022       2571.8022                       *                                   
 Model                              2          2                                                        1.23177702E-02                             1_GWF-(6,9789)
 Backtracking                       3                     0          0       268.72133       268.72133                       *                                   
 Model                              3          2                                                        2.46291037E-03       *                     1_GWF-(6,9789)
 ----------------------------------------------------------------------------------------------------------------------------------------------------------------


 3 CALLS TO NUMERICAL SOLUTION IN TIME STEP 21 STRESS PERIOD 1
 12 TOTAL ITERATIONS

 OUTER ITERATION SUMMARY
 ----------------------------------------------------------------------------------------------------------------------------------------------------------------
                                OUTER      INNER  BACKTRACK  BACKTRACK        INCOMING        OUTGOING                    STEP   MAXIMUM CHANGE MODEL-(CELLID) OR
 OUTER ITERATION STEP       ITERATION  ITERATION       FLAG ITERATIONS        RESIDUAL        RESIDUAL  MAXIMUM CHANGE SUCCESS             MODEL-PACKAGE-(NUMBER)
 ----------------------------------------------------------------------------------------------------------------------------------------------------------------
 Backtracking                       1                     0          0       42201.460       42201.460                       *                                   
 Model                              1         10                                                           -0.32309504                            1_GWF-(6,11748)
 Backtracking                       2                     0          0       2151.0548       2151.0548                       *                                   
 Model                              2          2                                                            0.61889131                             1_GWF-(4,3924)
 Backtracking                       3                     0          0       122.13429       122.13429                       *                                   
 Model                              3          2                                                        9.39720347E-04       *                    1_GWF-(6,10894)
 ----------------------------------------------------------------------------------------------------------------------------------------------------------------


 3 CALLS TO NUMERICAL SOLUTION IN TIME STEP 22 STRESS PERIOD 1
 14 TOTAL ITERATIONS

 OUTER ITERATION SUMMARY
 ----------------------------------------------------------------------------------------------------------------------------------------------------------------
                                OUTER      INNER  BACKTRACK  BACKTRACK        INCOMING        OUTGOING                    STEP   MAXIMUM CHANGE MODEL-(CELLID) OR
 OUTER ITERATION STEP       ITERATION  ITERATION       FLAG ITERATIONS        RESIDUAL        RESIDUAL  MAXIMUM CHANGE SUCCESS             MODEL-PACKAGE-(NUMBER)
 ----------------------------------------------------------------------------------------------------------------------------------------------------------------
 Backtracking                       1                     0          0       40920.086       40920.086                       *                                   
 Model                              1         10                                                            0.54283092                             1_GWF-(4,3924)
 Backtracking                       2                     0          0       2441.0031       2441.0031                       *                                   
 Model                              2          4                                                            0.11863577                            1_GWF-(6,10813)
 Backtracking                       3                     0          0       108.31746       108.31746                       *                                   
 Model                              3          2                                                        2.37227834E-02                            1_GWF-(6,10813)
 Backtracking                       4                     0          0       38.414169       38.414169                       *                                   
 Model                              4          1                                                        4.74174516E-03       *                    1_GWF-(6,10813)
 ----------------------------------------------------------------------------------------------------------------------------------------------------------------


 4 CALLS TO NUMERICAL SOLUTION IN TIME STEP 23 STRESS PERIOD 1
 17 TOTAL ITERATIONS

 OUTER ITERATION SUMMARY
 ----------------------------------------------------------------------------------------------------------------------------------------------------------------
                                OUTER      INNER  BACKTRACK  BACKTRACK        INCOMING        OUTGOING                    STEP   MAXIMUM CHANGE MODEL-(CELLID) OR
 OUTER ITERATION STEP       ITERATION  ITERATION       FLAG ITERATIONS        RESIDUAL        RESIDUAL  MAXIMUM CHANGE SUCCESS             MODEL-PACKAGE-(NUMBER)
 ----------------------------------------------------------------------------------------------------------------------------------------------------------------
 Backtracking                       1                     0          0       38498.315       38498.315                       *                                   
 Model                              1         11                                                           -0.29601179                            1_GWF-(6,11748)
 Backtracking                       2                     0          0       2046.9536       2046.9536                       *                                   
 Model                              2          2                                                       -1.02159548E-02                            1_GWF-(5,10808)
 Backtracking                       3                     0          0       116.15821       116.15821                       *                                   
 Model                              3          2                                                        9.17391571E-04       *                     1_GWF-(6,9817)
 ----------------------------------------------------------------------------------------------------------------------------------------------------------------


 3 CALLS TO NUMERICAL SOLUTION IN TIME STEP 24 STRESS PERIOD 1
 15 TOTAL ITERATIONS

 OUTER ITERATION SUMMARY
 ----------------------------------------------------------------------------------------------------------------------------------------------------------------
                                OUTER      INNER  BACKTRACK  BACKTRACK        INCOMING        OUTGOING                    STEP   MAXIMUM CHANGE MODEL-(CELLID) OR
 OUTER ITERATION STEP       ITERATION  ITERATION       FLAG ITERATIONS        RESIDUAL        RESIDUAL  MAXIMUM CHANGE SUCCESS             MODEL-PACKAGE-(NUMBER)
 ----------------------------------------------------------------------------------------------------------------------------------------------------------------
 Backtracking                       1                     0          0       35588.268       35588.268                       *                                   
 Model                              1         11                                                           -0.28359217                            1_GWF-(6,11748)
 Backtracking                       2                     0          0       1820.2849       1820.2849                       *                                   
 Model                              2          3                                                            0.47182997                             1_GWF-(4,6286)
 Backtracking                       3                     0          0       115.95031       115.95031                       *                                   
 Model                              3          2                                                        1.31345531E-03       *                     1_GWF-(6,9792)
 ----------------------------------------------------------------------------------------------------------------------------------------------------------------


 3 CALLS TO NUMERICAL SOLUTION IN TIME STEP 25 STRESS PERIOD 1
 16 TOTAL ITERATIONS

 OUTER ITERATION SUMMARY
 ----------------------------------------------------------------------------------------------------------------------------------------------------------------
                                OUTER      INNER  BACKTRACK  BACKTRACK        INCOMING        OUTGOING                    STEP   MAXIMUM CHANGE MODEL-(CELLID) OR
 OUTER ITERATION STEP       ITERATION  ITERATION       FLAG ITERATIONS        RESIDUAL        RESIDUAL  MAXIMUM CHANGE SUCCESS             MODEL-PACKAGE-(NUMBER)
 ----------------------------------------------------------------------------------------------------------------------------------------------------------------
 Backtracking                       1                     0          0       32100.277       32100.277                       *                                   
 Model                              1         11                                                             1.1192601                             1_GWF-(4,6286)
 Backtracking                       2                     0          0       1805.7187       1805.7187                       *                                   
 Model                              2          4                                                            0.15595686                             1_GWF-(5,6924)
 Backtracking                       3                     0          0       114.48335       114.48335                       *                                   
 Model                              3          3                                                        9.53936774E-03       *                    1_GWF-(6,10674)
 ----------------------------------------------------------------------------------------------------------------------------------------------------------------


 3 CALLS TO NUMERICAL SOLUTION IN TIME STEP 26 STRESS PERIOD 1
 18 TOTAL ITERATIONS

 OUTER ITERATION SUMMARY
 ----------------------------------------------------------------------------------------------------------------------------------------------------------------
                                OUTER      INNER  BACKTRACK  BACKTRACK        INCOMING        OUTGOING                    STEP   MAXIMUM CHANGE MODEL-(CELLID) OR
 OUTER ITERATION STEP       ITERATION  ITERATION       FLAG ITERATIONS        RESIDUAL        RESIDUAL  MAXIMUM CHANGE SUCCESS             MODEL-PACKAGE-(NUMBER)
 ----------------------------------------------------------------------------------------------------------------------------------------------------------------
 Backtracking                       1                     0          0       29184.311       29184.311                       *                                   
 Model                              1         11                                                            0.35355734                             1_GWF-(4,6286)
 Backtracking                       2                     0          0       1503.1853       1503.1853                       *                                   
 Model                              2          2                                                           -0.84232907                             1_GWF-(5,9728)
 Backtracking                       3                     0          0       84.325048       84.325048                       *                                   
 Model                              3          2                                                        2.92961681E-03       *                     1_GWF-(6,9775)
 ----------------------------------------------------------------------------------------------------------------------------------------------------------------


 3 CALLS TO NUMERICAL SOLUTION IN TIME STEP 27 STRESS PERIOD 1
 15 TOTAL ITERATIONS

 OUTER ITERATION SUMMARY
 ----------------------------------------------------------------------------------------------------------------------------------------------------------------
                                OUTER      INNER  BACKTRACK  BACKTRACK        INCOMING        OUTGOING                    STEP   MAXIMUM CHANGE MODEL-(CELLID) OR
 OUTER ITERATION STEP       ITERATION  ITERATION       FLAG ITERATIONS        RESIDUAL        RESIDUAL  MAXIMUM CHANGE SUCCESS             MODEL-PACKAGE-(NUMBER)
 ----------------------------------------------------------------------------------------------------------------------------------------------------------------
 Backtracking                       1                     0          0       26069.545       26069.545                       *                                   
 Model                              1          9                                                           -0.25031302                            1_GWF-(6,11748)
 Backtracking                       2                     0          0       1371.9646       1371.9646                       *                                   
 Model                              2          2                                                           -0.70699377                             1_GWF-(5,8646)
 Backtracking                       3                     0          0       91.488794       91.488794                       *                                   
 Model                              3          2                                                        7.86791118E-03       *                     1_GWF-(6,9740)
 ----------------------------------------------------------------------------------------------------------------------------------------------------------------


 3 CALLS TO NUMERICAL SOLUTION IN TIME STEP 28 STRESS PERIOD 1
 13 TOTAL ITERATIONS

 OUTER ITERATION SUMMARY
 ----------------------------------------------------------------------------------------------------------------------------------------------------------------
                                OUTER      INNER  BACKTRACK  BACKTRACK        INCOMING        OUTGOING                    STEP   MAXIMUM CHANGE MODEL-(CELLID) OR
 OUTER ITERATION STEP       ITERATION  ITERATION       FLAG ITERATIONS        RESIDUAL        RESIDUAL  MAXIMUM CHANGE SUCCESS             MODEL-PACKAGE-(NUMBER)
 ----------------------------------------------------------------------------------------------------------------------------------------------------------------
 Backtracking                       1                     0          0       24928.993       24928.993                       *                                   
 Model                              1          9                                                           -0.24041315                            1_GWF-(6,11748)
 Backtracking                       2                     0          0       1485.0008       1485.0008                       *                                   
 Model                              2          2                                                        9.07175776E-02                              1_GWF-(3,350)
 Backtracking                       3                     0          0       104.23232       104.23232                       *                                   
 Model                              3          2                                                        1.19743349E-03       *                     1_GWF-(6,9820)
 ----------------------------------------------------------------------------------------------------------------------------------------------------------------


 3 CALLS TO NUMERICAL SOLUTION IN TIME STEP 29 STRESS PERIOD 1
 13 TOTAL ITERATIONS

 OUTER ITERATION SUMMARY
 ----------------------------------------------------------------------------------------------------------------------------------------------------------------
                                OUTER      INNER  BACKTRACK  BACKTRACK        INCOMING        OUTGOING                    STEP   MAXIMUM CHANGE MODEL-(CELLID) OR
 OUTER ITERATION STEP       ITERATION  ITERATION       FLAG ITERATIONS        RESIDUAL        RESIDUAL  MAXIMUM CHANGE SUCCESS             MODEL-PACKAGE-(NUMBER)
 ----------------------------------------------------------------------------------------------------------------------------------------------------------------
 Backtracking                       1                     0          0       22242.603       22242.603                       *                                   
 Model                              1          9                                                            0.29278325                              1_GWF-(3,350)
 Backtracking                       2                     0          0       1361.1492       1361.1492                       *                                   
 Model                              2          2                                                        8.76114832E-02                             1_GWF-(6,9819)
 Backtracking                       3                     0          0       86.795531       86.795531                       *                                   
 Model                              3          2                                                        1.75202011E-02                             1_GWF-(6,9819)
 Backtracking                       4                     0          0       42.172831       42.172831                       *                                   
 Model                              4          2                                                        3.50203456E-03       *                     1_GWF-(6,9819)
 ----------------------------------------------------------------------------------------------------------------------------------------------------------------


 4 CALLS TO NUMERICAL SOLUTION IN TIME STEP 30 STRESS PERIOD 1
 15 TOTAL ITERATIONS

 OUTER ITERATION SUMMARY
 ----------------------------------------------------------------------------------------------------------------------------------------------------------------
                                OUTER      INNER  BACKTRACK  BACKTRACK        INCOMING        OUTGOING                    STEP   MAXIMUM CHANGE MODEL-(CELLID) OR
 OUTER ITERATION STEP       ITERATION  ITERATION       FLAG ITERATIONS        RESIDUAL        RESIDUAL  MAXIMUM CHANGE SUCCESS             MODEL-PACKAGE-(NUMBER)
 ----------------------------------------------------------------------------------------------------------------------------------------------------------------
[...]
 ----------------------------------------------------------------------------------------------------------------------------------------------------------------
 Backtracking                       1                     0          0       1426.2865       1426.2865                       *                                   
 Model                              1          6                                                             1.7833477                             1_GWF-(3,9635)
 Backtracking                       2                     0          0       38.586954       38.586954                       *                                   
 Model                              2          1                                                        3.30415002E-04       *                     1_GWF-(5,9730)
 ----------------------------------------------------------------------------------------------------------------------------------------------------------------


 2 CALLS TO NUMERICAL SOLUTION IN TIME STEP 20 STRESS PERIOD 68
 7 TOTAL ITERATIONS

 OUTER ITERATION SUMMARY
 ----------------------------------------------------------------------------------------------------------------------------------------------------------------
                                OUTER      INNER  BACKTRACK  BACKTRACK        INCOMING        OUTGOING                    STEP   MAXIMUM CHANGE MODEL-(CELLID) OR
 OUTER ITERATION STEP       ITERATION  ITERATION       FLAG ITERATIONS        RESIDUAL        RESIDUAL  MAXIMUM CHANGE SUCCESS             MODEL-PACKAGE-(NUMBER)
 ----------------------------------------------------------------------------------------------------------------------------------------------------------------
 Backtracking                       1                     0          0       1424.6817       1424.6817                       *                                   
 Model                              1          6                                                             1.6438114                             1_GWF-(3,9635)
 Backtracking                       2                     0          0       38.587105       38.587105                       *                                   
 Model                              2          1                                                        2.25661751E-04       *                     1_GWF-(5,9730)
 ----------------------------------------------------------------------------------------------------------------------------------------------------------------


 2 CALLS TO NUMERICAL SOLUTION IN TIME STEP 21 STRESS PERIOD 68
 7 TOTAL ITERATIONS

 OUTER ITERATION SUMMARY
 ----------------------------------------------------------------------------------------------------------------------------------------------------------------
                                OUTER      INNER  BACKTRACK  BACKTRACK        INCOMING        OUTGOING                    STEP   MAXIMUM CHANGE MODEL-(CELLID) OR
 OUTER ITERATION STEP       ITERATION  ITERATION       FLAG ITERATIONS        RESIDUAL        RESIDUAL  MAXIMUM CHANGE SUCCESS             MODEL-PACKAGE-(NUMBER)
 ----------------------------------------------------------------------------------------------------------------------------------------------------------------
 Backtracking                       1                     0          0       1425.0190       1425.0190                       *                                   
 Model                              1          6                                                            -3.4277605                             1_GWF-(3,9635)
 Backtracking                       2                     0          0       38.587179       38.587179                       *                                   
 Model                              2          1                                                       -8.74962976E-04       *                     1_GWF-(5,9735)
 ----------------------------------------------------------------------------------------------------------------------------------------------------------------


 2 CALLS TO NUMERICAL SOLUTION IN TIME STEP 22 STRESS PERIOD 68
 7 TOTAL ITERATIONS

 OUTER ITERATION SUMMARY
 ----------------------------------------------------------------------------------------------------------------------------------------------------------------
                                OUTER      INNER  BACKTRACK  BACKTRACK        INCOMING        OUTGOING                    STEP   MAXIMUM CHANGE MODEL-(CELLID) OR
 OUTER ITERATION STEP       ITERATION  ITERATION       FLAG ITERATIONS        RESIDUAL        RESIDUAL  MAXIMUM CHANGE SUCCESS             MODEL-PACKAGE-(NUMBER)
 ----------------------------------------------------------------------------------------------------------------------------------------------------------------
 Backtracking                       1                     0          0       1425.0811       1425.0811                       *                                   
 Model                              1          6                                                       -2.24728761E-02                            1_GWF-(5,10882)
 Backtracking                       2                     0          0       38.587414       38.587414                       *                                   
 Model                              2          1                                                       -1.32286193E-04       *                    1_GWF-(5,10882)
 ----------------------------------------------------------------------------------------------------------------------------------------------------------------


 2 CALLS TO NUMERICAL SOLUTION IN TIME STEP 23 STRESS PERIOD 68
 7 TOTAL ITERATIONS

 OUTER ITERATION SUMMARY
 ----------------------------------------------------------------------------------------------------------------------------------------------------------------
                                OUTER      INNER  BACKTRACK  BACKTRACK        INCOMING        OUTGOING                    STEP   MAXIMUM CHANGE MODEL-(CELLID) OR
 OUTER ITERATION STEP       ITERATION  ITERATION       FLAG ITERATIONS        RESIDUAL        RESIDUAL  MAXIMUM CHANGE SUCCESS             MODEL-PACKAGE-(NUMBER)
 ----------------------------------------------------------------------------------------------------------------------------------------------------------------
 Backtracking                       1                     0          0       1424.7004       1424.7004                       *                                   
 Model                              1          6                                                       -2.25927510E-02                            1_GWF-(5,10882)
 Backtracking                       2                     0          0       38.587801       38.587801                       *                                   
 Model                              2          2                                                       -4.19872661E-02                             1_GWF-(2,1756)
 Backtracking                       3                     0          0       38.551603       38.551603                       *                                   
 Model                              3          1                                                       -5.00864562E-05       *                     1_GWF-(2,1756)
 ----------------------------------------------------------------------------------------------------------------------------------------------------------------


 3 CALLS TO NUMERICAL SOLUTION IN TIME STEP 24 STRESS PERIOD 68
 9 TOTAL ITERATIONS

 OUTER ITERATION SUMMARY
 ----------------------------------------------------------------------------------------------------------------------------------------------------------------
                                OUTER      INNER  BACKTRACK  BACKTRACK        INCOMING        OUTGOING                    STEP   MAXIMUM CHANGE MODEL-(CELLID) OR
 OUTER ITERATION STEP       ITERATION  ITERATION       FLAG ITERATIONS        RESIDUAL        RESIDUAL  MAXIMUM CHANGE SUCCESS             MODEL-PACKAGE-(NUMBER)
 ----------------------------------------------------------------------------------------------------------------------------------------------------------------
 Backtracking                       1                     0          0       1424.3205       1424.3205                       *                                   
 Model                              1          6                                                           -0.15715932                             1_GWF-(2,1756)
 Backtracking                       2                     0          0       38.585556       38.585556                       *                                   
 Model                              2          1                                                       -1.33075053E-04       *                    1_GWF-(5,10882)
 ----------------------------------------------------------------------------------------------------------------------------------------------------------------


 2 CALLS TO NUMERICAL SOLUTION IN TIME STEP 25 STRESS PERIOD 68
 7 TOTAL ITERATIONS

 OUTER ITERATION SUMMARY
 ----------------------------------------------------------------------------------------------------------------------------------------------------------------
                                OUTER      INNER  BACKTRACK  BACKTRACK        INCOMING        OUTGOING                    STEP   MAXIMUM CHANGE MODEL-(CELLID) OR
 OUTER ITERATION STEP       ITERATION  ITERATION       FLAG ITERATIONS        RESIDUAL        RESIDUAL  MAXIMUM CHANGE SUCCESS             MODEL-PACKAGE-(NUMBER)
 ----------------------------------------------------------------------------------------------------------------------------------------------------------------
 Backtracking                       1                     0          0       1423.9445       1423.9445                       *                                   
 Model                              1          6                                                       -2.28265836E-02                            1_GWF-(5,10882)
 Backtracking                       2                     0          0       38.585692       38.585692                       *                                   
 Model                              2          1                                                       -1.33418012E-04       *                    1_GWF-(5,10882)
 ----------------------------------------------------------------------------------------------------------------------------------------------------------------


 2 CALLS TO NUMERICAL SOLUTION IN TIME STEP 26 STRESS PERIOD 68
 7 TOTAL ITERATIONS

 OUTER ITERATION SUMMARY
 ----------------------------------------------------------------------------------------------------------------------------------------------------------------
                                OUTER      INNER  BACKTRACK  BACKTRACK        INCOMING        OUTGOING                    STEP   MAXIMUM CHANGE MODEL-(CELLID) OR
 OUTER ITERATION STEP       ITERATION  ITERATION       FLAG ITERATIONS        RESIDUAL        RESIDUAL  MAXIMUM CHANGE SUCCESS             MODEL-PACKAGE-(NUMBER)
 ----------------------------------------------------------------------------------------------------------------------------------------------------------------
 Backtracking                       1                     0          0       1423.5628       1423.5628                       *                                   
 Model                              1          6                                                       -2.29403264E-02                            1_GWF-(5,10882)
 Backtracking                       2                     0          0       38.586038       38.586038                       *                                   
 Model                              2          1                                                       -1.33715419E-04       *                    1_GWF-(5,10882)
 ----------------------------------------------------------------------------------------------------------------------------------------------------------------


 2 CALLS TO NUMERICAL SOLUTION IN TIME STEP 27 STRESS PERIOD 68
 7 TOTAL ITERATIONS

 OUTER ITERATION SUMMARY
 ----------------------------------------------------------------------------------------------------------------------------------------------------------------
                                OUTER      INNER  BACKTRACK  BACKTRACK        INCOMING        OUTGOING                    STEP   MAXIMUM CHANGE MODEL-(CELLID) OR
 OUTER ITERATION STEP       ITERATION  ITERATION       FLAG ITERATIONS        RESIDUAL        RESIDUAL  MAXIMUM CHANGE SUCCESS             MODEL-PACKAGE-(NUMBER)
 ----------------------------------------------------------------------------------------------------------------------------------------------------------------
 Backtracking                       1                     0          0       1423.1811       1423.1811                       *                                   
 Model                              1          6                                                       -2.30518089E-02                            1_GWF-(5,10882)
 Backtracking                       2                     0          0       38.586164       38.586164                       *                                   
 Model                              2          1                                                       -1.33971303E-04       *                    1_GWF-(5,10882)
 ----------------------------------------------------------------------------------------------------------------------------------------------------------------


 2 CALLS TO NUMERICAL SOLUTION IN TIME STEP 28 STRESS PERIOD 68
 7 TOTAL ITERATIONS

 OUTER ITERATION SUMMARY
 ----------------------------------------------------------------------------------------------------------------------------------------------------------------
                                OUTER      INNER  BACKTRACK  BACKTRACK        INCOMING        OUTGOING                    STEP   MAXIMUM CHANGE MODEL-(CELLID) OR
 OUTER ITERATION STEP       ITERATION  ITERATION       FLAG ITERATIONS        RESIDUAL        RESIDUAL  MAXIMUM CHANGE SUCCESS             MODEL-PACKAGE-(NUMBER)
 ----------------------------------------------------------------------------------------------------------------------------------------------------------------
 Backtracking                       1                     0          0       1422.7971       1422.7971                       *                                   
 Model                              1          6                                                       -2.31609232E-02                            1_GWF-(5,10882)
 Backtracking                       2                     0          0       38.875284       38.875284                       *                                   
 Model                              2          2                                                            -1.3472491                             1_GWF-(4,6984)
 Backtracking                       3                     0          0       38.552610       38.552610                       *                                   
 Model                              3          1                                                       -1.61573855E-04       *                     1_GWF-(4,6984)
 ----------------------------------------------------------------------------------------------------------------------------------------------------------------


 3 CALLS TO NUMERICAL SOLUTION IN TIME STEP 29 STRESS PERIOD 68
 9 TOTAL ITERATIONS

 OUTER ITERATION SUMMARY
 ----------------------------------------------------------------------------------------------------------------------------------------------------------------
                                OUTER      INNER  BACKTRACK  BACKTRACK        INCOMING        OUTGOING                    STEP   MAXIMUM CHANGE MODEL-(CELLID) OR
 OUTER ITERATION STEP       ITERATION  ITERATION       FLAG ITERATIONS        RESIDUAL        RESIDUAL  MAXIMUM CHANGE SUCCESS             MODEL-PACKAGE-(NUMBER)
 ----------------------------------------------------------------------------------------------------------------------------------------------------------------
 Backtracking                       1                     0          0       1422.4298       1422.4298                       *                                   
 Model                              1          6                                                           -0.97292880                             1_GWF-(4,6984)
 Backtracking                       2                     0          0       38.586340       38.586340                       *                                   
 Model                              2          1                                                       -1.60263385E-04       *                     1_GWF-(4,6984)
 ----------------------------------------------------------------------------------------------------------------------------------------------------------------


 2 CALLS TO NUMERICAL SOLUTION IN TIME STEP 30 STRESS PERIOD 68
 7 TOTAL ITERATIONS

 OUTER ITERATION SUMMARY
 ----------------------------------------------------------------------------------------------------------------------------------------------------------------
                                OUTER      INNER  BACKTRACK  BACKTRACK        INCOMING        OUTGOING                    STEP   MAXIMUM CHANGE MODEL-(CELLID) OR
 OUTER ITERATION STEP       ITERATION  ITERATION       FLAG ITERATIONS        RESIDUAL        RESIDUAL  MAXIMUM CHANGE SUCCESS             MODEL-PACKAGE-(NUMBER)
 ----------------------------------------------------------------------------------------------------------------------------------------------------------------
 Backtracking                       1                     0          0       1422.0796       1422.0796                       *                                   
 Model                              1          6                                                       -2.33716011E-02                            1_GWF-(5,10882)
 Backtracking                       2                     0          0       38.590791       38.590791                       *                                   
 Model                              2          2                                                           -0.16773607                             1_GWF-(4,7037)
 Backtracking                       3                     0          0       38.552918       38.552918                       *                                   
 Model                              3          1                                                       -1.89948647E-04       *                     1_GWF-(4,7037)
 ----------------------------------------------------------------------------------------------------------------------------------------------------------------


 3 CALLS TO NUMERICAL SOLUTION IN TIME STEP 31 STRESS PERIOD 68
 9 TOTAL ITERATIONS

 MEMORY MANAGER TOTAL STORAGE BY DATA TYPE, IN MEGABYTES
 -------------------------------
                    ALLOCATED   
 DATA TYPE           MEMORY     
 -------------------------------
 Character        0.52153300    
 Logical          4.40000000E-05
 Integer          19.465332     
 Real             684.17238     
 -------------------------------
 Total            704.15928     
 -------------------------------



 Run end date and time (yyyy/mm/dd hh:mm:ss): 2020/12/05 15:35:12
 Elapsed run time: 13 Minutes, 32.833 Seconds
 Normal termination of simulation.
