                                   MODFLOW 6
                U.S. GEOLOGICAL SURVEY MODULAR HYDROLOGIC MODEL
                            VERSION 6.1.1 06/12/2020

  MODFLOW 6 compiled Jul 13 2020 19:39:27 with GFORTRAN compiler (ver. 8.1.0)

This software has been approved for release by the U.S. Geological 
Survey (USGS). Although the software has been subjected to rigorous 
review, the USGS reserves the right to update the software as needed 
pursuant to further analysis and review. No warranty, expressed or 
implied, is made by the USGS or the U.S. Government as to the 
functionality of the software and related material nor shall the 
fact of release constitute any such warranty. Furthermore, the 
software is released on condition that neither the USGS nor the U.S. 
Government shall be held liable for any damages resulting from its 
authorized or unauthorized use. Also refer to the USGS Water 
Resources Software User Rights Notice for complete use, copyright, 
and distribution information.


System command used to initiate simulation:


MODFLOW was compiled using uniform precision.

Real Variables
  KIND: 8
  TINY (smallest non-zero value):    2.225074-308
  HUGE (largest value):    1.797693+308
  PRECISION: 15
  BIT SIZE: 64

Integer Variables
  KIND: 4
  HUGE (largest value): 2147483647
  BIT SIZE: 32

Long Integer Variables
  KIND: 8
  HUGE (largest value): 9223372036854775807
  BIT SIZE: 64

Logical Variables
  KIND: 4
  BIT SIZE: 32


 OPENED mfsim.nam
 FILE TYPE:NAM   UNIT 1001   STATUS:OLD                 
 FORMAT:FORMATTED              ACCESS:SEQUENTIAL          
 ACTION:READ                


 READING SIMULATION OPTIONS
 END OF SIMULATION OPTIONS

 READING SIMULATION TIMING

 OPENED DC_MF6.tdis
 FILE TYPE:TDIS   UNIT 1002   STATUS:OLD                 
 FORMAT:FORMATTED              ACCESS:SEQUENTIAL          
 ACTION:READ                


 TDIS -- TEMPORAL DISCRETIZATION PACKAGE,
 VERSION 1 : 11/13/2014 - INPUT READ FROM UNIT 1002
 PROCESSING TDIS OPTIONS
    SIMULATION TIME UNIT IS DAYS
    SIMULATION STARTING DATE AND TIME IS 2013-01-01                    
 END OF TDIS OPTIONS
 PROCESSING TDIS DIMENSIONS
   68 STRESS PERIOD(S) IN SIMULATION
 END OF TDIS DIMENSIONS
 PROCESSING TDIS PERIODDATA


 STRESS PERIOD     LENGTH       TIME STEPS     MULTIPLIER FOR DELT
 ----------------------------------------------------------------------------
        1         31.00000         31                    1.000
        2         28.00000         28                    1.000
        3         31.00000         31                    1.000
        4         30.00000         30                    1.000
        5         31.00000         31                    1.000
        6         30.00000         30                    1.000
        7         31.00000         31                    1.000
        8         31.00000         31                    1.000
        9         30.00000         30                    1.000
       10         31.00000         31                    1.000
       11         30.00000         30                    1.000
       12         31.00000         31                    1.000
       13         31.00000         31                    1.000
       14         28.00000         28                    1.000
       15         31.00000         31                    1.000
       16         30.00000         30                    1.000
       17         31.00000         31                    1.000
       18         30.00000         30                    1.000
       19         31.00000         31                    1.000
       20         31.00000         31                    1.000
       21         30.00000         30                    1.000
       22         31.00000         31                    1.000
       23         30.00000         30                    1.000
       24         31.00000         31                    1.000
       25         31.00000         31                    1.000
       26         28.00000         28                    1.000
       27         31.00000         31                    1.000
       28         30.00000         30                    1.000
       29         31.00000         31                    1.000
       30         30.00000         30                    1.000
       31         31.00000         31                    1.000
       32         31.00000         31                    1.000
       33         30.00000         30                    1.000
       34         31.00000         31                    1.000
       35         30.00000         30                    1.000
       36         31.00000         31                    1.000
       37         31.00000         31                    1.000
       38         29.00000         29                    1.000
       39         31.00000         31                    1.000
       40         30.00000         30                    1.000
       41         31.00000         31                    1.000
       42         30.00000         30                    1.000
       43         31.00000         31                    1.000
       44         31.00000         31                    1.000
       45         30.00000         30                    1.000
       46         31.00000         31                    1.000
       47         30.00000         30                    1.000
       48         31.00000         31                    1.000
       49         31.00000         31                    1.000
       50         28.00000         28                    1.000
       51         31.00000         31                    1.000
       52         30.00000         30                    1.000
       53         31.00000         31                    1.000
       54         30.00000         30                    1.000
       55         31.00000         31                    1.000
       56         31.00000         31                    1.000
       57         30.00000         30                    1.000
       58         31.00000         31                    1.000
       59         30.00000         30                    1.000
       60         31.00000         31                    1.000
       61         31.00000         31                    1.000
       62         28.00000         28                    1.000
       63         31.00000         31                    1.000
       64         30.00000         30                    1.000
       65         31.00000         31                    1.000
       66         30.00000         30                    1.000
       67         31.00000         31                    1.000
       68         31.00000         31                    1.000
 END OF TDIS PERIODDATA
 END OF SIMULATION TIMING

 READING SIMULATION MODELS
    GWF6 model DC_MF6 will be created as model 1
 END OF SIMULATION MODELS

 READING SIMULATION EXCHANGES
 END OF SIMULATION EXCHANGES

 READING SOLUTIONGROUP

 Creating solution: SLN_1           

 OPENED DC_MF6.ims
 FILE TYPE:IMS   UNIT 1017   STATUS:OLD                 
 FORMAT:FORMATTED              ACCESS:SEQUENTIAL          
 ACTION:READ                

 END OF SIMULATION SOLUTIONGROUP

 IMS -- ITERATIVE MODEL SOLUTION PACKAGE, VERSION 6, 4/28/2017
         INPUT READ FROM UNIT 1017

 PROCESSING IMS OPTIONS
 COMPLEX OPTION:
 DEFAULT SOLVER INPUT VALUES REFLECT STRONGLY NONLINEAR MODEL
 END OF IMS OPTIONS

 PROCESSING IMS NONLINEAR
 END OF IMS NONLINEAR DATA
 **UNDER-RELAXATION WILL BE USED***

 ***IMS LINEAR SOLVER WILL BE USED***

 IMSLINEAR -- UNSTRUCTURED LINEAR SOLUTION PACKAGE, VERSION 8, 04/28/2017

 PROCESSING LINEAR DATA
 END OF LINEAR DATA

 OUTER ITERATION CONVERGENCE CRITERION    (DVCLOSE) =    0.100000E-01
 MAXIMUM NUMBER OF OUTER ITERATIONS        (MXITER) =       500
 SOLVER PRINTOUT INDEX                     (IPRIMS) =         1
 NONLINEAR ITERATION METHOD            (NONLINMETH) =         3
 LINEAR SOLUTION METHOD                   (LINMETH) =         1
 UNDER-RELAXATION WEIGHT REDUCTION FACTOR   (THETA) =    0.800000E+00
 UNDER-RELAXATION WEIGHT INCREASE INCREMENT (KAPPA) =    0.100000E-03
 UNDER-RELAXATION PREVIOUS HISTORY FACTOR   (GAMMA) =    0.000000E+00
 UNDER-RELAXATIONMOMENTUM TERM          (AMOMENTUM) =    0.000000E+00
    MAXIMUM NUMBER OF BACKTRACKS         (NUMTRACK) =        20
 BACKTRACKING TOLERANCE FACTOR               (BTOL) =    0.105000E+01
 BACKTRACKING REDUCTION FACTOR             (BREDUC) =    0.100000E+00
 BACKTRACKING RESIDUAL LIMIT              (RES_LIM) =    0.200000E-02

       SOLUTION BY THE BICONJUGATE-GRADIENT STABILIZED METHOD
 ------------------------------------------------------------------
 MAXIMUM OF    500 CALLS OF SOLUTION ROUTINE
 MAXIMUM OF    100 INTERNAL ITERATIONS PER CALL TO SOLUTION ROUTINE
 LINEAR ACCELERATION METHOD            = BCGS      
 MATRIX PRECONDITIONING TYPE           = INCOMPLETE LUT      
 MATRIX SCALING APPROACH               = NO SCALING          
 MATRIX REORDERING APPROACH            = ORIGINAL ORDERING        
 NUMBER OF ORTHOGONALIZATIONS          =        2
 HEAD CHANGE CRITERION FOR CLOSURE     =    0.10000E-01
 RESIDUAL CHANGE CRITERION FOR CLOSURE =    0.10000E-01
 RESIDUAL CONVERGENCE OPTION           =        0
 RESIDUAL CONVERGENCE NORM             = INFINITY NORM   
 RELAXATION FACTOR                     =    0.00000E+00
 NUMBER OF LEVELS                      =              5
 DROP TOLERANCE                        =    0.10000E-03


1
                            STRESS PERIOD NO.    1, LENGTH =   31.00000    
                            -----------------------------------------------

                              NUMBER OF TIME STEPS =    31

                               MULTIPLIER FOR DELT =     1.000

                            INITIAL TIME STEP SIZE =   1.000000    

 OUTER ITERATION SUMMARY
 ----------------------------------------------------------------------------------------------------------------------------------------------------------------
                                OUTER      INNER  BACKTRACK  BACKTRACK        INCOMING        OUTGOING                    STEP   MAXIMUM CHANGE MODEL-(CELLID) OR
 OUTER ITERATION STEP       ITERATION  ITERATION       FLAG ITERATIONS        RESIDUAL        RESIDUAL  MAXIMUM CHANGE SUCCESS             MODEL-PACKAGE-(NUMBER)
 ----------------------------------------------------------------------------------------------------------------------------------------------------------------
 Backtracking                       1                     0          0       2044262.1       2044262.1                       *                                   
 Model                              1         10                                                            -11.126420                            1_GWF-(5,11715)
 Backtracking                       2                     1          1       2896961.7       1842191.9                                                           
 Model                              2         10                                                             7.7971054                            1_GWF-(6,11566)
 Backtracking                       3                     0          0       684350.00       684350.00                       *                                   
 Model                              3          6                                                             8.7995480                             1_GWF-(3,3083)
 Backtracking                       4                     0          0       274978.40       274978.40                       *                                   
 Model                              4          3                                                             2.0183314                             1_GWF-(3,4331)
 Backtracking                       5                     0          0       108178.29       108178.29                       *                                   
 Model                              5          2                                                            0.40460307                             1_GWF-(3,4333)
 Backtracking                       6                     0          0       43315.907       43315.907                       *                                   
 Model                              6          2                                                             2.7957940                             1_GWF-(3,4333)
 Backtracking                       7                     0          0       16611.767       16611.767                       *                                   
 Model                              7          2                                                            0.28516611                             1_GWF-(3,4330)
 Backtracking                       8                     0          0       6331.2129       6331.2129                       *                                   
 Model                              8          2                                                        1.48686158E-02                             1_GWF-(3,4333)
 Backtracking                       9                     0          0       2300.6336       2300.6336                       *                                   
 Model                              9          2                                                       -5.36689574E-03       *                     1_GWF-(5,5534)
 ----------------------------------------------------------------------------------------------------------------------------------------------------------------


 9 CALLS TO NUMERICAL SOLUTION IN TIME STEP 1 STRESS PERIOD 1
 39 TOTAL ITERATIONS

 OUTER ITERATION SUMMARY
 ----------------------------------------------------------------------------------------------------------------------------------------------------------------
                                OUTER      INNER  BACKTRACK  BACKTRACK        INCOMING        OUTGOING                    STEP   MAXIMUM CHANGE MODEL-(CELLID) OR
 OUTER ITERATION STEP       ITERATION  ITERATION       FLAG ITERATIONS        RESIDUAL        RESIDUAL  MAXIMUM CHANGE SUCCESS             MODEL-PACKAGE-(NUMBER)
 ----------------------------------------------------------------------------------------------------------------------------------------------------------------
 Backtracking                       1                     0          0       617617.71       617617.71                       *                                   
 Model                              1         11                                                            -1.8717140                            1_GWF-(6,11595)
 Backtracking                       2                     0          0       80419.580       80419.580                       *                                   
 Model                              2          7                                                            0.36613757                            1_GWF-(6,11128)
 Backtracking                       3                     0          0       20038.607       20038.607                       *                                   
 Model                              3          3                                                        7.31821863E-02                            1_GWF-(6,11128)
 Backtracking                       4                     0          0       7402.6561       7402.6561                       *                                   
 Model                              4          2                                                        1.46273495E-02                            1_GWF-(6,11128)
 Backtracking                       5                     0          0       2833.9494       2833.9494                       *                                   
 Model                              5          1                                                       -8.99681515E-03       *                     1_GWF-(5,8184)
 ----------------------------------------------------------------------------------------------------------------------------------------------------------------


 5 CALLS TO NUMERICAL SOLUTION IN TIME STEP 2 STRESS PERIOD 1
 24 TOTAL ITERATIONS

 OUTER ITERATION SUMMARY
 ----------------------------------------------------------------------------------------------------------------------------------------------------------------
                                OUTER      INNER  BACKTRACK  BACKTRACK        INCOMING        OUTGOING                    STEP   MAXIMUM CHANGE MODEL-(CELLID) OR
 OUTER ITERATION STEP       ITERATION  ITERATION       FLAG ITERATIONS        RESIDUAL        RESIDUAL  MAXIMUM CHANGE SUCCESS             MODEL-PACKAGE-(NUMBER)
 ----------------------------------------------------------------------------------------------------------------------------------------------------------------
 Backtracking                       1                     0          0       542949.79       542949.79                       *                                   
 Model                              1         10                                                            -1.2249148                            1_GWF-(6,11595)
 Backtracking                       2                     1          1       3080105.9       494032.94                                                           
 Model                              2         10                                                             1.4559530                             1_GWF-(3,3063)
 Backtracking                       3                     0          0       294243.24       294243.24                       *                                   
 Model                              3          5                                                            0.55023816                             1_GWF-(6,9694)
 Backtracking                       4                     0          0       115372.04       115372.04                       *                                   
 Model                              4          2                                                        3.79243439E-02                             1_GWF-(3,3546)
 Backtracking                       5                     0          0       45582.595       45582.595                       *                                   
 Model                              5          2                                                       -1.79415944E-02                             1_GWF-(5,6675)
 Backtracking                       6                     0          0       17889.976       17889.976                       *                                   
 Model                              6          2                                                       -1.28025907E-02                             1_GWF-(5,6675)
 Backtracking                       7                     0          0       6914.7002       6914.7002                       *                                   
 Model                              7          2                                                       -8.84982768E-03       *                     1_GWF-(5,6675)
 ----------------------------------------------------------------------------------------------------------------------------------------------------------------


 7 CALLS TO NUMERICAL SOLUTION IN TIME STEP 3 STRESS PERIOD 1
 33 TOTAL ITERATIONS

 OUTER ITERATION SUMMARY
 ----------------------------------------------------------------------------------------------------------------------------------------------------------------
                                OUTER      INNER  BACKTRACK  BACKTRACK        INCOMING        OUTGOING                    STEP   MAXIMUM CHANGE MODEL-(CELLID) OR
 OUTER ITERATION STEP       ITERATION  ITERATION       FLAG ITERATIONS        RESIDUAL        RESIDUAL  MAXIMUM CHANGE SUCCESS             MODEL-PACKAGE-(NUMBER)
 ----------------------------------------------------------------------------------------------------------------------------------------------------------------
 Backtracking                       1                     0          0       403307.16       403307.16                       *                                   
 Model                              1         11                                                             2.1636554                             1_GWF-(3,9635)
 Backtracking                       2                     0          0       420495.52       420495.52                       *                                   
 Model                              2          6                                                            0.40434694                            1_GWF-(6,10659)
 Backtracking                       3                     0          0       166997.71       166997.71                       *                                   
 Model                              3          2                                                       -3.04980417E-02                             1_GWF-(5,6667)
 Backtracking                       4                     0          0       66240.045       66240.045                       *                                   
 Model                              4          2                                                       -2.20003203E-02                             1_GWF-(5,6667)
 Backtracking                       5                     0          0       26125.961       26125.961                       *                                   
 Model                              5          2                                                       -1.57782070E-02                             1_GWF-(5,6667)
 Backtracking                       6                     0          0       10195.506       10195.506                       *                                   
 Model                              6          2                                                       -1.10793940E-02                             1_GWF-(5,6667)
 Backtracking                       7                     0          0       3885.6344       3885.6344                       *                                   
 Model                              7          2                                                       -7.35710674E-03       *                     1_GWF-(5,6667)
 ----------------------------------------------------------------------------------------------------------------------------------------------------------------


 7 CALLS TO NUMERICAL SOLUTION IN TIME STEP 4 STRESS PERIOD 1
 27 TOTAL ITERATIONS

 OUTER ITERATION SUMMARY
 ----------------------------------------------------------------------------------------------------------------------------------------------------------------
                                OUTER      INNER  BACKTRACK  BACKTRACK        INCOMING        OUTGOING                    STEP   MAXIMUM CHANGE MODEL-(CELLID) OR
 OUTER ITERATION STEP       ITERATION  ITERATION       FLAG ITERATIONS        RESIDUAL        RESIDUAL  MAXIMUM CHANGE SUCCESS             MODEL-PACKAGE-(NUMBER)
 ----------------------------------------------------------------------------------------------------------------------------------------------------------------
 Backtracking                       1                     0          0       288456.55       288456.55                       *                                   
 Model                              1         11                                                            -1.0268249                             1_GWF-(3,9653)
 Backtracking                       2                     0          0       61896.659       61896.659                       *                                   
 Model                              2          5                                                            0.44392938                             1_GWF-(3,3522)
 Backtracking                       3                     0          0       22258.969       22258.969                       *                                   
 Model                              3          2                                                        5.09165428E-02                             1_GWF-(3,3528)
 Backtracking                       4                     0          0       8609.4128       8609.4128                       *                                   
 Model                              4          2                                                        1.18387738E-02                             1_GWF-(3,3528)
 Backtracking                       5                     0          0       3253.8056       3253.8056                       *                                   
 Model                              5          2                                                       -4.25284570E-03       *                     1_GWF-(4,4224)
 ----------------------------------------------------------------------------------------------------------------------------------------------------------------


 5 CALLS TO NUMERICAL SOLUTION IN TIME STEP 5 STRESS PERIOD 1
 22 TOTAL ITERATIONS

 OUTER ITERATION SUMMARY
 ----------------------------------------------------------------------------------------------------------------------------------------------------------------
                                OUTER      INNER  BACKTRACK  BACKTRACK        INCOMING        OUTGOING                    STEP   MAXIMUM CHANGE MODEL-(CELLID) OR
 OUTER ITERATION STEP       ITERATION  ITERATION       FLAG ITERATIONS        RESIDUAL        RESIDUAL  MAXIMUM CHANGE SUCCESS             MODEL-PACKAGE-(NUMBER)
 ----------------------------------------------------------------------------------------------------------------------------------------------------------------
 Backtracking                       1                     0          0       213331.94       213331.94                       *                                   
 Model                              1         11                                                            -1.1440801                             1_GWF-(3,9653)
 Backtracking                       2                     1          1       1155151.7       193678.00                                                           
 Model                              2         10                                                            -1.0296721                             1_GWF-(3,9653)
 Backtracking                       3                     1          1       878972.91       175812.77                                                           
 Model                              3         10                                                           -0.92670491                             1_GWF-(3,9653)
 Backtracking                       4                     0          0       14024.814       14024.814                       *                                   
 Model                              4          4                                                            0.19092741                            1_GWF-(6,10659)
 Backtracking                       5                     0          0       1189.1393       1189.1393                       *                                   
 Model                              5          2                                                        3.81845320E-02                            1_GWF-(6,10659)
 Backtracking                       6                     0          0       119.89752       119.89752                       *                                   
 Model                              6          1                                                        7.63260940E-03       *                    1_GWF-(6,10659)
 ----------------------------------------------------------------------------------------------------------------------------------------------------------------


 6 CALLS TO NUMERICAL SOLUTION IN TIME STEP 6 STRESS PERIOD 1
 38 TOTAL ITERATIONS

 OUTER ITERATION SUMMARY
 ----------------------------------------------------------------------------------------------------------------------------------------------------------------
                                OUTER      INNER  BACKTRACK  BACKTRACK        INCOMING        OUTGOING                    STEP   MAXIMUM CHANGE MODEL-(CELLID) OR
 OUTER ITERATION STEP       ITERATION  ITERATION       FLAG ITERATIONS        RESIDUAL        RESIDUAL  MAXIMUM CHANGE SUCCESS             MODEL-PACKAGE-(NUMBER)
 ----------------------------------------------------------------------------------------------------------------------------------------------------------------
 Backtracking                       1                     0          0       167051.92       167051.92                       *                                   
 Model                              1         10                                                           -0.67245426                            1_GWF-(5,11017)
 Backtracking                       2                     0          0       57835.618       57835.618                       *                                   
 Model                              2          4                                                        9.32017244E-02                             1_GWF-(3,6280)
 Backtracking                       3                     0          0       22346.312       22346.312                       *                                   
 Model                              3          2                                                            0.24008064                             1_GWF-(4,8198)
 Backtracking                       4                     0          0       8770.8395       8770.8395                       *                                   
 Model                              4          2                                                        2.17282527E-02                             1_GWF-(4,8198)
 Backtracking                       5                     0          0       3397.6768       3397.6768                       *                                   
 Model                              5          2                                                       -7.47777072E-03       *                     1_GWF-(5,6075)
 ----------------------------------------------------------------------------------------------------------------------------------------------------------------


 5 CALLS TO NUMERICAL SOLUTION IN TIME STEP 7 STRESS PERIOD 1
 20 TOTAL ITERATIONS

 OUTER ITERATION SUMMARY
 ----------------------------------------------------------------------------------------------------------------------------------------------------------------
                                OUTER      INNER  BACKTRACK  BACKTRACK        INCOMING        OUTGOING                    STEP   MAXIMUM CHANGE MODEL-(CELLID) OR
 OUTER ITERATION STEP       ITERATION  ITERATION       FLAG ITERATIONS        RESIDUAL        RESIDUAL  MAXIMUM CHANGE SUCCESS             MODEL-PACKAGE-(NUMBER)
 ----------------------------------------------------------------------------------------------------------------------------------------------------------------
 Backtracking                       1                     0          0       140268.03       140268.03                       *                                   
 Model                              1         11                                                           -0.62442825                            1_GWF-(5,11020)
 Backtracking                       2                     0          0       57917.890       57917.890                       *                                   
 Model                              2          4                                                            0.40520821                             1_GWF-(5,6975)
 Backtracking                       3                     0          0       22534.837       22534.837                       *                                   
 Model                              3          2                                                        3.26342887E-02                             1_GWF-(6,9772)
 Backtracking                       4                     0          0       8846.3295       8846.3295                       *                                   
 Model                              4          2                                                       -1.08294486E-02                             1_GWF-(5,6067)
 Backtracking                       5                     0          0       3426.1179       3426.1179                       *                                   
 Model                              5          1                                                       -7.49326558E-03       *                     1_GWF-(5,6067)
 ----------------------------------------------------------------------------------------------------------------------------------------------------------------


 5 CALLS TO NUMERICAL SOLUTION IN TIME STEP 8 STRESS PERIOD 1
 20 TOTAL ITERATIONS

 OUTER ITERATION SUMMARY
 ----------------------------------------------------------------------------------------------------------------------------------------------------------------
                                OUTER      INNER  BACKTRACK  BACKTRACK        INCOMING        OUTGOING                    STEP   MAXIMUM CHANGE MODEL-(CELLID) OR
 OUTER ITERATION STEP       ITERATION  ITERATION       FLAG ITERATIONS        RESIDUAL        RESIDUAL  MAXIMUM CHANGE SUCCESS             MODEL-PACKAGE-(NUMBER)
 ----------------------------------------------------------------------------------------------------------------------------------------------------------------
 Backtracking                       1                     0          0       125551.89       125551.89                       *                                   
 Model                              1         10                                                             12.862139                             1_GWF-(3,9635)
 Backtracking                       2                     0          0       8958.5379       8958.5379                       *                                   
 Model                              2          7                                                            -2.1801789                            1_GWF-(5,11532)
 Backtracking                       3                     0          0       768.98205       768.98205                       *                                   
 Model                              3          2                                                           -0.43722306                            1_GWF-(5,11532)
 Backtracking                       4                     0          0       123.01134       123.01134                       *                                   
 Model                              4          2                                                       -8.74617078E-02                            1_GWF-(5,11532)
 Backtracking                       5                     0          0       54.535087       54.535087                       *                                   
 Model                              5          2                                                        2.71306373E-02                             1_GWF-(5,6713)
 Backtracking                       6                     4          0       70.422956       70.422956                       *                                   
 Model                              6          2                                                       -1.70424769E-02                             1_GWF-(5,6713)
 Backtracking                       7                     0          0       54.070689       54.070689                       *                                   
 Model                              7          2                                                       -1.00610111E-02                             1_GWF-(5,6713)
 Backtracking                       8                     0          0       45.554837       45.554837                       *                                   
 Model                              8          2                                                       -5.93845497E-03       *                     1_GWF-(5,6713)
 ----------------------------------------------------------------------------------------------------------------------------------------------------------------


 8 CALLS TO NUMERICAL SOLUTION IN TIME STEP 9 STRESS PERIOD 1
 29 TOTAL ITERATIONS

 OUTER ITERATION SUMMARY
 ----------------------------------------------------------------------------------------------------------------------------------------------------------------
                                OUTER      INNER  BACKTRACK  BACKTRACK        INCOMING        OUTGOING                    STEP   MAXIMUM CHANGE MODEL-(CELLID) OR
 OUTER ITERATION STEP       ITERATION  ITERATION       FLAG ITERATIONS        RESIDUAL        RESIDUAL  MAXIMUM CHANGE SUCCESS             MODEL-PACKAGE-(NUMBER)
 ----------------------------------------------------------------------------------------------------------------------------------------------------------------
 Backtracking                       1                     0          0       104914.38       104914.38                       *                                   
 Model                              1         10                                                             2.1358689                             1_GWF-(3,9635)
 Backtracking                       2                     0          0       7893.9004       7893.9004                       *                                   
 Model                              2          4                                                           -0.76392261                            1_GWF-(4,12247)
 Backtracking                       3                     0          0       1265.8795       1265.8795                       *                                   
 Model                              3          2                                                           -0.15283546                            1_GWF-(4,12247)
 Backtracking                       4                     0          0       410.61754       410.61754                       *                                   
 Model                              4          2                                                       -3.05540298E-02                            1_GWF-(4,12247)
 Backtracking                       5                     0          0       142.80888       142.80888                       *                                   
 Model                              5          1                                                       -6.10478527E-03       *                    1_GWF-(4,12247)
 ----------------------------------------------------------------------------------------------------------------------------------------------------------------


 5 CALLS TO NUMERICAL SOLUTION IN TIME STEP 10 STRESS PERIOD 1
 19 TOTAL ITERATIONS

 OUTER ITERATION SUMMARY
 ----------------------------------------------------------------------------------------------------------------------------------------------------------------
                                OUTER      INNER  BACKTRACK  BACKTRACK        INCOMING        OUTGOING                    STEP   MAXIMUM CHANGE MODEL-(CELLID) OR
 OUTER ITERATION STEP       ITERATION  ITERATION       FLAG ITERATIONS        RESIDUAL        RESIDUAL  MAXIMUM CHANGE SUCCESS             MODEL-PACKAGE-(NUMBER)
 ----------------------------------------------------------------------------------------------------------------------------------------------------------------
 Backtracking                       1                     0          0       86120.101       86120.101                       *                                   
 Model                              1         10                                                            -15.020886                             1_GWF-(3,9635)
 Backtracking                       2                     0          0       5787.6551       5787.6551                       *                                   
 Model                              2          3                                                            -4.5657522                            1_GWF-(3,12247)
 Backtracking                       3                     0          0       518.55860       518.55860                       *                                   
 Model                              3          2                                                            0.14347085                            1_GWF-(6,10659)
 Backtracking                       4                     0          0       84.842240       84.842240                       *                                   
 Model                              4          2                                                        2.86793265E-02                            1_GWF-(6,10659)
 Backtracking                       5                     0          0       41.103629       41.103629                       *                                   
 Model                              5          1                                                        5.73005444E-03       *                    1_GWF-(6,10659)
 ----------------------------------------------------------------------------------------------------------------------------------------------------------------


 5 CALLS TO NUMERICAL SOLUTION IN TIME STEP 11 STRESS PERIOD 1
 18 TOTAL ITERATIONS

 OUTER ITERATION SUMMARY
 ----------------------------------------------------------------------------------------------------------------------------------------------------------------
                                OUTER      INNER  BACKTRACK  BACKTRACK        INCOMING        OUTGOING                    STEP   MAXIMUM CHANGE MODEL-(CELLID) OR
 OUTER ITERATION STEP       ITERATION  ITERATION       FLAG ITERATIONS        RESIDUAL        RESIDUAL  MAXIMUM CHANGE SUCCESS             MODEL-PACKAGE-(NUMBER)
 ----------------------------------------------------------------------------------------------------------------------------------------------------------------
 Backtracking                       1                     0          0       70572.403       70572.403                       *                                   
 Model                              1          9                                                           -0.76381331                            1_GWF-(4,12247)
 Backtracking                       2                     0          0       4310.5949       4310.5949                       *                                   
 Model                              2          4                                                            -1.2127772                            1_GWF-(5,11530)
 Backtracking                       3                     0          0       276.04466       276.04466                       *                                   
 Model                              3          1                                                        7.34995757E-04       *                    1_GWF-(6,10908)
 ----------------------------------------------------------------------------------------------------------------------------------------------------------------


 3 CALLS TO NUMERICAL SOLUTION IN TIME STEP 12 STRESS PERIOD 1
 14 TOTAL ITERATIONS

 OUTER ITERATION SUMMARY
 ----------------------------------------------------------------------------------------------------------------------------------------------------------------
                                OUTER      INNER  BACKTRACK  BACKTRACK        INCOMING        OUTGOING                    STEP   MAXIMUM CHANGE MODEL-(CELLID) OR
 OUTER ITERATION STEP       ITERATION  ITERATION       FLAG ITERATIONS        RESIDUAL        RESIDUAL  MAXIMUM CHANGE SUCCESS             MODEL-PACKAGE-(NUMBER)
 ----------------------------------------------------------------------------------------------------------------------------------------------------------------
 Backtracking                       1                     0          0       61534.810       61534.810                       *                                   
 Model                              1          9                                                           -0.48703239                            1_GWF-(6,11748)
 Backtracking                       2                     0          0       3980.1951       3980.1951                       *                                   
 Model                              2          2                                                           -0.44437468                            1_GWF-(5,11532)
 Backtracking                       3                     0          0       436.29373       436.29373                       *                                   
 Model                              3          2                                                        2.11592625E-02                            1_GWF-(6,10825)
 Backtracking                       4                     0          0       85.833879       85.833879                       *                                   
 Model                              4          2                                                        4.22977312E-03       *                    1_GWF-(6,10825)
 ----------------------------------------------------------------------------------------------------------------------------------------------------------------


 4 CALLS TO NUMERICAL SOLUTION IN TIME STEP 13 STRESS PERIOD 1
 15 TOTAL ITERATIONS

 OUTER ITERATION SUMMARY
 ----------------------------------------------------------------------------------------------------------------------------------------------------------------
                                OUTER      INNER  BACKTRACK  BACKTRACK        INCOMING        OUTGOING                    STEP   MAXIMUM CHANGE MODEL-(CELLID) OR
 OUTER ITERATION STEP       ITERATION  ITERATION       FLAG ITERATIONS        RESIDUAL        RESIDUAL  MAXIMUM CHANGE SUCCESS             MODEL-PACKAGE-(NUMBER)
 ----------------------------------------------------------------------------------------------------------------------------------------------------------------
 Backtracking                       1                     0          0       55197.592       55197.592                       *                                   
 Model                              1          9                                                            -1.3879140                            1_GWF-(5,11532)
 Backtracking                       2                     0          0       3760.7374       3760.7374                       *                                   
 Model                              2          2                                                        9.32564401E-03       *                     1_GWF-(4,8198)
 ----------------------------------------------------------------------------------------------------------------------------------------------------------------


 2 CALLS TO NUMERICAL SOLUTION IN TIME STEP 14 STRESS PERIOD 1
 11 TOTAL ITERATIONS

 OUTER ITERATION SUMMARY
 ----------------------------------------------------------------------------------------------------------------------------------------------------------------
                                OUTER      INNER  BACKTRACK  BACKTRACK        INCOMING        OUTGOING                    STEP   MAXIMUM CHANGE MODEL-(CELLID) OR
 OUTER ITERATION STEP       ITERATION  ITERATION       FLAG ITERATIONS        RESIDUAL        RESIDUAL  MAXIMUM CHANGE SUCCESS             MODEL-PACKAGE-(NUMBER)
 ----------------------------------------------------------------------------------------------------------------------------------------------------------------
 Backtracking                       1                     0          0       51413.943       51413.943                       *                                   
 Model                              1          8                                                           -0.44508250                            1_GWF-(6,11748)
 Backtracking                       2                     0          0       2749.9425       2749.9425                       *                                   
 Model                              2          2                                                        9.83695658E-02                            1_GWF-(6,11553)
 Backtracking                       3                     0          0       160.37136       160.37136                       *                                   
 Model                              3          2                                                        1.96732889E-02                            1_GWF-(6,11553)
 Backtracking                       4                     0          0       41.112288       41.112288                       *                                   
 Model                              4          1                                                        3.93256960E-03       *                    1_GWF-(6,11553)
 ----------------------------------------------------------------------------------------------------------------------------------------------------------------


 4 CALLS TO NUMERICAL SOLUTION IN TIME STEP 15 STRESS PERIOD 1
 13 TOTAL ITERATIONS

 OUTER ITERATION SUMMARY
 ----------------------------------------------------------------------------------------------------------------------------------------------------------------
                                OUTER      INNER  BACKTRACK  BACKTRACK        INCOMING        OUTGOING                    STEP   MAXIMUM CHANGE MODEL-(CELLID) OR
 OUTER ITERATION STEP       ITERATION  ITERATION       FLAG ITERATIONS        RESIDUAL        RESIDUAL  MAXIMUM CHANGE SUCCESS             MODEL-PACKAGE-(NUMBER)
 ----------------------------------------------------------------------------------------------------------------------------------------------------------------
 Backtracking                       1                     0          0       50083.231       50083.231                       *                                   
 Model                              1          8                                                           -0.42500115                            1_GWF-(6,11748)
 Backtracking                       2                     0          0       2541.7132       2541.7132                       *                                   
 Model                              2          2                                                            0.10735392                            1_GWF-(6,10905)
 Backtracking                       3                     0          0       140.85229       140.85229                       *                                   
 Model                              3          2                                                        2.14682632E-02                            1_GWF-(6,10905)
 Backtracking                       4                     0          0       38.907025       38.907025                       *                                   
 Model                              4          1                                                        4.29133462E-03       *                    1_GWF-(6,10905)
 ----------------------------------------------------------------------------------------------------------------------------------------------------------------


 4 CALLS TO NUMERICAL SOLUTION IN TIME STEP 16 STRESS PERIOD 1
 13 TOTAL ITERATIONS

 OUTER ITERATION SUMMARY
 ----------------------------------------------------------------------------------------------------------------------------------------------------------------
                                OUTER      INNER  BACKTRACK  BACKTRACK        INCOMING        OUTGOING                    STEP   MAXIMUM CHANGE MODEL-(CELLID) OR
 OUTER ITERATION STEP       ITERATION  ITERATION       FLAG ITERATIONS        RESIDUAL        RESIDUAL  MAXIMUM CHANGE SUCCESS             MODEL-PACKAGE-(NUMBER)
 ----------------------------------------------------------------------------------------------------------------------------------------------------------------
 Backtracking                       1                     0          0       48819.944       48819.944                       *                                   
 Model                              1          8                                                           -0.40574996                            1_GWF-(6,11748)
 Backtracking                       2                     0          0       2529.7533       2529.7533                       *                                   
 Model                              2          2                                                            0.35887648                             1_GWF-(4,3968)
 Backtracking                       3                     0          0       194.34459       194.34459                       *                                   
 Model                              3          1                                                        8.74734275E-03       *                    1_GWF-(6,11692)
 ----------------------------------------------------------------------------------------------------------------------------------------------------------------


 3 CALLS TO NUMERICAL SOLUTION IN TIME STEP 17 STRESS PERIOD 1
 11 TOTAL ITERATIONS

 OUTER ITERATION SUMMARY
 ----------------------------------------------------------------------------------------------------------------------------------------------------------------
                                OUTER      INNER  BACKTRACK  BACKTRACK        INCOMING        OUTGOING                    STEP   MAXIMUM CHANGE MODEL-(CELLID) OR
 OUTER ITERATION STEP       ITERATION  ITERATION       FLAG ITERATIONS        RESIDUAL        RESIDUAL  MAXIMUM CHANGE SUCCESS             MODEL-PACKAGE-(NUMBER)
 ----------------------------------------------------------------------------------------------------------------------------------------------------------------
 Backtracking                       1                     0          0       47933.976       47933.976                       *                                   
 Model                              1          7                                                            0.83873259                             1_GWF-(4,3968)
 Backtracking                       2                     0          0       3293.3393       3293.3393                       *                                   
 Model                              2          3                                                            0.12815957                             1_GWF-(5,7038)
 Backtracking                       3                     0          0       405.02311       405.02311                       *                                   
 Model                              3          2                                                        2.23010642E-03       *                     1_GWF-(6,9766)
 ----------------------------------------------------------------------------------------------------------------------------------------------------------------


 3 CALLS TO NUMERICAL SOLUTION IN TIME STEP 18 STRESS PERIOD 1
 12 TOTAL ITERATIONS

 OUTER ITERATION SUMMARY
 ----------------------------------------------------------------------------------------------------------------------------------------------------------------
                                OUTER      INNER  BACKTRACK  BACKTRACK        INCOMING        OUTGOING                    STEP   MAXIMUM CHANGE MODEL-(CELLID) OR
 OUTER ITERATION STEP       ITERATION  ITERATION       FLAG ITERATIONS        RESIDUAL        RESIDUAL  MAXIMUM CHANGE SUCCESS             MODEL-PACKAGE-(NUMBER)
 ----------------------------------------------------------------------------------------------------------------------------------------------------------------
 Backtracking                       1                     0          0       46569.322       46569.322                       *                                   
 Model                              1          8                                                           -0.36997336                            1_GWF-(6,11748)
 Backtracking                       2                     0          0       2451.4155       2451.4155                       *                                   
 Model                              2          3                                                        8.66133649E-02                              1_GWF-(3,217)
 Backtracking                       3                     0          0       134.40286       134.40286                       *                                   
 Model                              3          2                                                        1.97638420E-03       *                     1_GWF-(6,9774)
 ----------------------------------------------------------------------------------------------------------------------------------------------------------------


 3 CALLS TO NUMERICAL SOLUTION IN TIME STEP 19 STRESS PERIOD 1
 13 TOTAL ITERATIONS

 OUTER ITERATION SUMMARY
 ----------------------------------------------------------------------------------------------------------------------------------------------------------------
                                OUTER      INNER  BACKTRACK  BACKTRACK        INCOMING        OUTGOING                    STEP   MAXIMUM CHANGE MODEL-(CELLID) OR
 OUTER ITERATION STEP       ITERATION  ITERATION       FLAG ITERATIONS        RESIDUAL        RESIDUAL  MAXIMUM CHANGE SUCCESS             MODEL-PACKAGE-(NUMBER)
 ----------------------------------------------------------------------------------------------------------------------------------------------------------------
 Backtracking                       1                     0          0       45071.650       45071.650                       *                                   
 Model                              1          7                                                            0.51126793                              1_GWF-(3,217)
 Backtracking                       2                     0          0       2263.4997       2263.4997                       *                                   
 Model                              2          2                                                            0.56514821                             1_GWF-(4,3938)
 Backtracking                       3                     0          0       124.64139       124.64139                       *                                   
 Model                              3          2                                                        1.04317229E-02                             1_GWF-(6,9783)
 Backtracking                       4                     0          0       38.684281       38.684281                       *                                   
 Model                              4          1                                                        2.08497458E-03       *                     1_GWF-(6,9783)
 ----------------------------------------------------------------------------------------------------------------------------------------------------------------


 4 CALLS TO NUMERICAL SOLUTION IN TIME STEP 20 STRESS PERIOD 1
 12 TOTAL ITERATIONS

 OUTER ITERATION SUMMARY
 ----------------------------------------------------------------------------------------------------------------------------------------------------------------
                                OUTER      INNER  BACKTRACK  BACKTRACK        INCOMING        OUTGOING                    STEP   MAXIMUM CHANGE MODEL-(CELLID) OR
 OUTER ITERATION STEP       ITERATION  ITERATION       FLAG ITERATIONS        RESIDUAL        RESIDUAL  MAXIMUM CHANGE SUCCESS             MODEL-PACKAGE-(NUMBER)
 ----------------------------------------------------------------------------------------------------------------------------------------------------------------
 Backtracking                       1                     0          0       43020.380       43020.380                       *                                   
 Model                              1          8                                                            0.53215600                             1_GWF-(4,3938)
 Backtracking                       2                     0          0       2568.3376       2568.3376                       *                                   
 Model                              2          2                                                        1.23177682E-02                             1_GWF-(6,9789)
 Backtracking                       3                     0          0       268.58112       268.58112                       *                                   
 Model                              3          2                                                        2.46291028E-03       *                     1_GWF-(6,9789)
 ----------------------------------------------------------------------------------------------------------------------------------------------------------------


 3 CALLS TO NUMERICAL SOLUTION IN TIME STEP 21 STRESS PERIOD 1
 12 TOTAL ITERATIONS

 OUTER ITERATION SUMMARY
 ----------------------------------------------------------------------------------------------------------------------------------------------------------------
                                OUTER      INNER  BACKTRACK  BACKTRACK        INCOMING        OUTGOING                    STEP   MAXIMUM CHANGE MODEL-(CELLID) OR
 OUTER ITERATION STEP       ITERATION  ITERATION       FLAG ITERATIONS        RESIDUAL        RESIDUAL  MAXIMUM CHANGE SUCCESS             MODEL-PACKAGE-(NUMBER)
 ----------------------------------------------------------------------------------------------------------------------------------------------------------------
 Backtracking                       1                     0          0       42136.410       42136.410                       *                                   
 Model                              1         10                                                           -0.32310304                            1_GWF-(6,11748)
 Backtracking                       2                     0          0       2146.5154       2146.5154                       *                                   
 Model                              2          2                                                            0.61891736                             1_GWF-(4,3924)
 Backtracking                       3                     0          0       121.88440       121.88440                       *                                   
 Model                              3          2                                                        9.39697802E-04       *                    1_GWF-(6,10894)
 ----------------------------------------------------------------------------------------------------------------------------------------------------------------


 3 CALLS TO NUMERICAL SOLUTION IN TIME STEP 22 STRESS PERIOD 1
 14 TOTAL ITERATIONS

 OUTER ITERATION SUMMARY
 ----------------------------------------------------------------------------------------------------------------------------------------------------------------
                                OUTER      INNER  BACKTRACK  BACKTRACK        INCOMING        OUTGOING                    STEP   MAXIMUM CHANGE MODEL-(CELLID) OR
 OUTER ITERATION STEP       ITERATION  ITERATION       FLAG ITERATIONS        RESIDUAL        RESIDUAL  MAXIMUM CHANGE SUCCESS             MODEL-PACKAGE-(NUMBER)
 ----------------------------------------------------------------------------------------------------------------------------------------------------------------
 Backtracking                       1                     0          0       41037.759       41037.759                       *                                   
 Model                              1         10                                                            0.54281497                             1_GWF-(4,3924)
 Backtracking                       2                     0          0       2440.3255       2440.3255                       *                                   
 Model                              2          4                                                            0.11856551                            1_GWF-(6,10813)
 Backtracking                       3                     0          0       108.12765       108.12765                       *                                   
 Model                              3          2                                                        2.37087367E-02                            1_GWF-(6,10813)
 Backtracking                       4                     0          0       38.415431       38.415431                       *                                   
 Model                              4          1                                                        4.73893727E-03       *                    1_GWF-(6,10813)
 ----------------------------------------------------------------------------------------------------------------------------------------------------------------


 4 CALLS TO NUMERICAL SOLUTION IN TIME STEP 23 STRESS PERIOD 1
 17 TOTAL ITERATIONS

 OUTER ITERATION SUMMARY
 ----------------------------------------------------------------------------------------------------------------------------------------------------------------
                                OUTER      INNER  BACKTRACK  BACKTRACK        INCOMING        OUTGOING                    STEP   MAXIMUM CHANGE MODEL-(CELLID) OR
 OUTER ITERATION STEP       ITERATION  ITERATION       FLAG ITERATIONS        RESIDUAL        RESIDUAL  MAXIMUM CHANGE SUCCESS             MODEL-PACKAGE-(NUMBER)
 ----------------------------------------------------------------------------------------------------------------------------------------------------------------
 Backtracking                       1                     0          0       38485.719       38485.719                       *                                   
 Model                              1         11                                                           -0.29601744                            1_GWF-(6,11748)
 Backtracking                       2                     0          0       2043.7994       2043.7994                       *                                   
 Model                              2          2                                                       -1.02122533E-02                            1_GWF-(5,10808)
 Backtracking                       3                     0          0       115.97380       115.97380                       *                                   
 Model                              3          2                                                        9.17389837E-04       *                     1_GWF-(6,9817)
 ----------------------------------------------------------------------------------------------------------------------------------------------------------------


 3 CALLS TO NUMERICAL SOLUTION IN TIME STEP 24 STRESS PERIOD 1
 15 TOTAL ITERATIONS

 OUTER ITERATION SUMMARY
 ----------------------------------------------------------------------------------------------------------------------------------------------------------------
                                OUTER      INNER  BACKTRACK  BACKTRACK        INCOMING        OUTGOING                    STEP   MAXIMUM CHANGE MODEL-(CELLID) OR
 OUTER ITERATION STEP       ITERATION  ITERATION       FLAG ITERATIONS        RESIDUAL        RESIDUAL  MAXIMUM CHANGE SUCCESS             MODEL-PACKAGE-(NUMBER)
 ----------------------------------------------------------------------------------------------------------------------------------------------------------------
 Backtracking                       1                     0          0       35686.285       35686.285                       *                                   
 Model                              1         11                                                           -0.28359720                            1_GWF-(6,11748)
 Backtracking                       2                     0          0       1819.4118       1819.4118                       *                                   
 Model                              2          3                                                            0.47183097                             1_GWF-(4,6286)
 Backtracking                       3                     0          0       115.81270       115.81270                       *                                   
 Model                              3          2                                                        1.31345242E-03       *                     1_GWF-(6,9792)
 ----------------------------------------------------------------------------------------------------------------------------------------------------------------


 3 CALLS TO NUMERICAL SOLUTION IN TIME STEP 25 STRESS PERIOD 1
 16 TOTAL ITERATIONS

 OUTER ITERATION SUMMARY
 ----------------------------------------------------------------------------------------------------------------------------------------------------------------
                                OUTER      INNER  BACKTRACK  BACKTRACK        INCOMING        OUTGOING                    STEP   MAXIMUM CHANGE MODEL-(CELLID) OR
 OUTER ITERATION STEP       ITERATION  ITERATION       FLAG ITERATIONS        RESIDUAL        RESIDUAL  MAXIMUM CHANGE SUCCESS             MODEL-PACKAGE-(NUMBER)
 ----------------------------------------------------------------------------------------------------------------------------------------------------------------
 Backtracking                       1                     0          0       32196.801       32196.801                       *                                   
 Model                              1         11                                                             1.1192595                             1_GWF-(4,6286)
 Backtracking                       2                     0          0       1804.6266       1804.6266                       *                                   
 Model                              2          4                                                            0.15595932                             1_GWF-(5,6924)
 Backtracking                       3                     0          0       114.32949       114.32949                       *                                   
 Model                              3          3                                                        9.53826614E-03       *                    1_GWF-(6,10674)
 ----------------------------------------------------------------------------------------------------------------------------------------------------------------


 3 CALLS TO NUMERICAL SOLUTION IN TIME STEP 26 STRESS PERIOD 1
 18 TOTAL ITERATIONS

 OUTER ITERATION SUMMARY
 ----------------------------------------------------------------------------------------------------------------------------------------------------------------
                                OUTER      INNER  BACKTRACK  BACKTRACK        INCOMING        OUTGOING                    STEP   MAXIMUM CHANGE MODEL-(CELLID) OR
 OUTER ITERATION STEP       ITERATION  ITERATION       FLAG ITERATIONS        RESIDUAL        RESIDUAL  MAXIMUM CHANGE SUCCESS             MODEL-PACKAGE-(NUMBER)
 ----------------------------------------------------------------------------------------------------------------------------------------------------------------
 Backtracking                       1                     0          0       29263.867       29263.867                       *                                   
 Model                              1         11                                                            0.35355717                             1_GWF-(4,6286)
 Backtracking                       2                     0          0       1502.4691       1502.4691                       *                                   
 Model                              2          2                                                           -0.84232895                             1_GWF-(5,9728)
 Backtracking                       3                     0          0       84.194611       84.194611                       *                                   
 Model                              3          2                                                        2.92900424E-03       *                     1_GWF-(6,9775)
 ----------------------------------------------------------------------------------------------------------------------------------------------------------------


 3 CALLS TO NUMERICAL SOLUTION IN TIME STEP 27 STRESS PERIOD 1
 15 TOTAL ITERATIONS

 OUTER ITERATION SUMMARY
 ----------------------------------------------------------------------------------------------------------------------------------------------------------------
                                OUTER      INNER  BACKTRACK  BACKTRACK        INCOMING        OUTGOING                    STEP   MAXIMUM CHANGE MODEL-(CELLID) OR
 OUTER ITERATION STEP       ITERATION  ITERATION       FLAG ITERATIONS        RESIDUAL        RESIDUAL  MAXIMUM CHANGE SUCCESS             MODEL-PACKAGE-(NUMBER)
 ----------------------------------------------------------------------------------------------------------------------------------------------------------------
 Backtracking                       1                     0          0       26170.573       26170.573                       *                                   
 Model                              1          9                                                           -0.25031499                            1_GWF-(6,11748)
 Backtracking                       2                     0          0       1371.9886       1371.9886                       *                                   
 Model                              2          2                                                           -0.70699372                             1_GWF-(5,8646)
 Backtracking                       3                     0          0       91.404454       91.404454                       *                                   
 Model                              3          2                                                        7.86677767E-03       *                     1_GWF-(6,9740)
 ----------------------------------------------------------------------------------------------------------------------------------------------------------------


 3 CALLS TO NUMERICAL SOLUTION IN TIME STEP 28 STRESS PERIOD 1
 13 TOTAL ITERATIONS

 OUTER ITERATION SUMMARY
 ----------------------------------------------------------------------------------------------------------------------------------------------------------------
                                OUTER      INNER  BACKTRACK  BACKTRACK        INCOMING        OUTGOING                    STEP   MAXIMUM CHANGE MODEL-(CELLID) OR
 OUTER ITERATION STEP       ITERATION  ITERATION       FLAG ITERATIONS        RESIDUAL        RESIDUAL  MAXIMUM CHANGE SUCCESS             MODEL-PACKAGE-(NUMBER)
 ----------------------------------------------------------------------------------------------------------------------------------------------------------------
 Backtracking                       1                     0          0       24923.011       24923.011                       *                                   
 Model                              1          9                                                           -0.24041432                            1_GWF-(6,11748)
 Backtracking                       2                     0          0       1515.9650       1515.9650                       *                                   
 Model                              2          2                                                        9.05451952E-02                              1_GWF-(3,350)
 Backtracking                       3                     0          0       105.66987       105.66987                       *                                   
 Model                              3          2                                                        1.19739476E-03       *                     1_GWF-(6,9820)
 ----------------------------------------------------------------------------------------------------------------------------------------------------------------


 3 CALLS TO NUMERICAL SOLUTION IN TIME STEP 29 STRESS PERIOD 1
 13 TOTAL ITERATIONS

 OUTER ITERATION SUMMARY
 ----------------------------------------------------------------------------------------------------------------------------------------------------------------
                                OUTER      INNER  BACKTRACK  BACKTRACK        INCOMING        OUTGOING                    STEP   MAXIMUM CHANGE MODEL-(CELLID) OR
 OUTER ITERATION STEP       ITERATION  ITERATION       FLAG ITERATIONS        RESIDUAL        RESIDUAL  MAXIMUM CHANGE SUCCESS             MODEL-PACKAGE-(NUMBER)
 ----------------------------------------------------------------------------------------------------------------------------------------------------------------
 Backtracking                       1                     0          0       22331.608       22331.608                       *                                   
 Model                              1          9                                                            0.29287051                              1_GWF-(3,350)
 Backtracking                       2                     0          0       1361.1784       1361.1784                       *                                   
 Model                              2          2                                                        8.75946158E-02                             1_GWF-(6,9819)
 Backtracking                       3                     0          0       86.729706       86.729706                       *                                   
 Model                              3          2                                                        1.75168287E-02                             1_GWF-(6,9819)
 Backtracking                       4                     0          0       42.173033       42.173033                       *                                   
 Model                              4          2                                                        3.50136036E-03       *                     1_GWF-(6,9819)
 ----------------------------------------------------------------------------------------------------------------------------------------------------------------


 4 CALLS TO NUMERICAL SOLUTION IN TIME STEP 30 STRESS PERIOD 1
 15 TOTAL ITERATIONS

 OUTER ITERATION SUMMARY
 ----------------------------------------------------------------------------------------------------------------------------------------------------------------
                                OUTER      INNER  BACKTRACK  BACKTRACK        INCOMING        OUTGOING                    STEP   MAXIMUM CHANGE MODEL-(CELLID) OR
 OUTER ITERATION STEP       ITERATION  ITERATION       FLAG ITERATIONS        RESIDUAL        RESIDUAL  MAXIMUM CHANGE SUCCESS             MODEL-PACKAGE-(NUMBER)
 ----------------------------------------------------------------------------------------------------------------------------------------------------------------
[...]
                                OUTER      INNER  BACKTRACK  BACKTRACK        INCOMING        OUTGOING                    STEP   MAXIMUM CHANGE MODEL-(CELLID) OR
 OUTER ITERATION STEP       ITERATION  ITERATION       FLAG ITERATIONS        RESIDUAL        RESIDUAL  MAXIMUM CHANGE SUCCESS             MODEL-PACKAGE-(NUMBER)
 ----------------------------------------------------------------------------------------------------------------------------------------------------------------
 Backtracking                       1                     0          0       1425.0798       1425.0798                       *                                   
 Model                              1          6                                                             1.7833476                             1_GWF-(3,9635)
 Backtracking                       2                     0          0       38.589400       38.589400                       *                                   
 Model                              2          1                                                        3.30098516E-04       *                     1_GWF-(5,9730)
 ----------------------------------------------------------------------------------------------------------------------------------------------------------------


 2 CALLS TO NUMERICAL SOLUTION IN TIME STEP 20 STRESS PERIOD 68
 7 TOTAL ITERATIONS

 OUTER ITERATION SUMMARY
 ----------------------------------------------------------------------------------------------------------------------------------------------------------------
                                OUTER      INNER  BACKTRACK  BACKTRACK        INCOMING        OUTGOING                    STEP   MAXIMUM CHANGE MODEL-(CELLID) OR
 OUTER ITERATION STEP       ITERATION  ITERATION       FLAG ITERATIONS        RESIDUAL        RESIDUAL  MAXIMUM CHANGE SUCCESS             MODEL-PACKAGE-(NUMBER)
 ----------------------------------------------------------------------------------------------------------------------------------------------------------------
 Backtracking                       1                     0          0       1423.4927       1423.4927                       *                                   
 Model                              1          6                                                             1.6438114                             1_GWF-(3,9635)
 Backtracking                       2                     0          0       38.626985       38.626985                       *                                   
 Model                              2          2                                                       -8.90332145E-02                              1_GWF-(2,930)
 Backtracking                       3                     0          0       38.577391       38.577391                       *                                   
 Model                              3          1                                                       -8.93778068E-05       *                     1_GWF-(3,2790)
 ----------------------------------------------------------------------------------------------------------------------------------------------------------------


 3 CALLS TO NUMERICAL SOLUTION IN TIME STEP 21 STRESS PERIOD 68
 9 TOTAL ITERATIONS

 OUTER ITERATION SUMMARY
 ----------------------------------------------------------------------------------------------------------------------------------------------------------------
                                OUTER      INNER  BACKTRACK  BACKTRACK        INCOMING        OUTGOING                    STEP   MAXIMUM CHANGE MODEL-(CELLID) OR
 OUTER ITERATION STEP       ITERATION  ITERATION       FLAG ITERATIONS        RESIDUAL        RESIDUAL  MAXIMUM CHANGE SUCCESS             MODEL-PACKAGE-(NUMBER)
 ----------------------------------------------------------------------------------------------------------------------------------------------------------------
 Backtracking                       1                     0          0       1423.8489       1423.8489                       *                                   
 Model                              1          6                                                            -3.4277605                             1_GWF-(3,9635)
 Backtracking                       2                     0          0       38.612038       38.612038                       *                                   
 Model                              2          1                                                       -8.75932355E-04       *                     1_GWF-(5,9735)
 ----------------------------------------------------------------------------------------------------------------------------------------------------------------


 2 CALLS TO NUMERICAL SOLUTION IN TIME STEP 22 STRESS PERIOD 68
 7 TOTAL ITERATIONS

 OUTER ITERATION SUMMARY
 ----------------------------------------------------------------------------------------------------------------------------------------------------------------
                                OUTER      INNER  BACKTRACK  BACKTRACK        INCOMING        OUTGOING                    STEP   MAXIMUM CHANGE MODEL-(CELLID) OR
 OUTER ITERATION STEP       ITERATION  ITERATION       FLAG ITERATIONS        RESIDUAL        RESIDUAL  MAXIMUM CHANGE SUCCESS             MODEL-PACKAGE-(NUMBER)
 ----------------------------------------------------------------------------------------------------------------------------------------------------------------
 Backtracking                       1                     0          0       1423.9212       1423.9212                       *                                   
 Model                              1          6                                                       -2.24911898E-02                            1_GWF-(5,10882)
 Backtracking                       2                     0          0       38.612104       38.612104                       *                                   
 Model                              2          1                                                       -1.32525734E-04       *                    1_GWF-(5,10882)
 ----------------------------------------------------------------------------------------------------------------------------------------------------------------


 2 CALLS TO NUMERICAL SOLUTION IN TIME STEP 23 STRESS PERIOD 68
 7 TOTAL ITERATIONS

 OUTER ITERATION SUMMARY
 ----------------------------------------------------------------------------------------------------------------------------------------------------------------
                                OUTER      INNER  BACKTRACK  BACKTRACK        INCOMING        OUTGOING                    STEP   MAXIMUM CHANGE MODEL-(CELLID) OR
 OUTER ITERATION STEP       ITERATION  ITERATION       FLAG ITERATIONS        RESIDUAL        RESIDUAL  MAXIMUM CHANGE SUCCESS             MODEL-PACKAGE-(NUMBER)
 ----------------------------------------------------------------------------------------------------------------------------------------------------------------
 Backtracking                       1                     0          0       1423.5489       1423.5489                       *                                   
 Model                              1          6                                                       -2.26108770E-02                            1_GWF-(5,10882)
 Backtracking                       2                     0          0       38.612102       38.612102                       *                                   
 Model                              2          1                                                       -1.32936440E-04       *                    1_GWF-(5,10882)
 ----------------------------------------------------------------------------------------------------------------------------------------------------------------


 2 CALLS TO NUMERICAL SOLUTION IN TIME STEP 24 STRESS PERIOD 68
 7 TOTAL ITERATIONS

 OUTER ITERATION SUMMARY
 ----------------------------------------------------------------------------------------------------------------------------------------------------------------
                                OUTER      INNER  BACKTRACK  BACKTRACK        INCOMING        OUTGOING                    STEP   MAXIMUM CHANGE MODEL-(CELLID) OR
 OUTER ITERATION STEP       ITERATION  ITERATION       FLAG ITERATIONS        RESIDUAL        RESIDUAL  MAXIMUM CHANGE SUCCESS             MODEL-PACKAGE-(NUMBER)
 ----------------------------------------------------------------------------------------------------------------------------------------------------------------
 Backtracking                       1                     0          0       1423.1868       1423.1868                       *                                   
 Model                              1          6                                                       -2.27286171E-02                            1_GWF-(5,10882)
 Backtracking                       2                     0          0       38.612120       38.612120                       *                                   
 Model                              2          1                                                       -1.33308745E-04       *                    1_GWF-(5,10882)
 ----------------------------------------------------------------------------------------------------------------------------------------------------------------


 2 CALLS TO NUMERICAL SOLUTION IN TIME STEP 25 STRESS PERIOD 68
 7 TOTAL ITERATIONS

 OUTER ITERATION SUMMARY
 ----------------------------------------------------------------------------------------------------------------------------------------------------------------
                                OUTER      INNER  BACKTRACK  BACKTRACK        INCOMING        OUTGOING                    STEP   MAXIMUM CHANGE MODEL-(CELLID) OR
 OUTER ITERATION STEP       ITERATION  ITERATION       FLAG ITERATIONS        RESIDUAL        RESIDUAL  MAXIMUM CHANGE SUCCESS             MODEL-PACKAGE-(NUMBER)
 ----------------------------------------------------------------------------------------------------------------------------------------------------------------
 Backtracking                       1                     0          0       1422.8305       1422.8305                       *                                   
 Model                              1          6                                                       -2.28443009E-02                            1_GWF-(5,10882)
 Backtracking                       2                     0          0       38.612184       38.612184                       *                                   
 Model                              2          1                                                       -1.33641964E-04       *                    1_GWF-(5,10882)
 ----------------------------------------------------------------------------------------------------------------------------------------------------------------


 2 CALLS TO NUMERICAL SOLUTION IN TIME STEP 26 STRESS PERIOD 68
 7 TOTAL ITERATIONS

 OUTER ITERATION SUMMARY
 ----------------------------------------------------------------------------------------------------------------------------------------------------------------
                                OUTER      INNER  BACKTRACK  BACKTRACK        INCOMING        OUTGOING                    STEP   MAXIMUM CHANGE MODEL-(CELLID) OR
 OUTER ITERATION STEP       ITERATION  ITERATION       FLAG ITERATIONS        RESIDUAL        RESIDUAL  MAXIMUM CHANGE SUCCESS             MODEL-PACKAGE-(NUMBER)
 ----------------------------------------------------------------------------------------------------------------------------------------------------------------
 Backtracking                       1                     0          0       1422.4810       1422.4810                       *                                   
 Model                              1          6                                                       -2.29578185E-02                            1_GWF-(5,10882)
 Backtracking                       2                     0          0       38.612263       38.612263                       *                                   
 Model                              2          1                                                       -1.33934719E-04       *                    1_GWF-(5,10882)
 ----------------------------------------------------------------------------------------------------------------------------------------------------------------


 2 CALLS TO NUMERICAL SOLUTION IN TIME STEP 27 STRESS PERIOD 68
 7 TOTAL ITERATIONS

 OUTER ITERATION SUMMARY
 ----------------------------------------------------------------------------------------------------------------------------------------------------------------
                                OUTER      INNER  BACKTRACK  BACKTRACK        INCOMING        OUTGOING                    STEP   MAXIMUM CHANGE MODEL-(CELLID) OR
 OUTER ITERATION STEP       ITERATION  ITERATION       FLAG ITERATIONS        RESIDUAL        RESIDUAL  MAXIMUM CHANGE SUCCESS             MODEL-PACKAGE-(NUMBER)
 ----------------------------------------------------------------------------------------------------------------------------------------------------------------
 Backtracking                       1                     0          0       1422.1351       1422.1351                       *                                   
 Model                              1          6                                                       -2.30690619E-02                            1_GWF-(5,10882)
 Backtracking                       2                     0          0       38.612343       38.612343                       *                                   
 Model                              2          1                                                       -1.34186056E-04       *                    1_GWF-(5,10882)
 ----------------------------------------------------------------------------------------------------------------------------------------------------------------


 2 CALLS TO NUMERICAL SOLUTION IN TIME STEP 28 STRESS PERIOD 68
 7 TOTAL ITERATIONS

 OUTER ITERATION SUMMARY
 ----------------------------------------------------------------------------------------------------------------------------------------------------------------
                                OUTER      INNER  BACKTRACK  BACKTRACK        INCOMING        OUTGOING                    STEP   MAXIMUM CHANGE MODEL-(CELLID) OR
 OUTER ITERATION STEP       ITERATION  ITERATION       FLAG ITERATIONS        RESIDUAL        RESIDUAL  MAXIMUM CHANGE SUCCESS             MODEL-PACKAGE-(NUMBER)
 ----------------------------------------------------------------------------------------------------------------------------------------------------------------
 Backtracking                       1                     0          0       1421.7929       1421.7929                       *                                   
 Model                              1          6                                                       -2.31779236E-02                            1_GWF-(5,10882)
 Backtracking                       2                     0          0       38.812300       38.812300                       *                                   
 Model                              2          2                                                            -1.1174392                             1_GWF-(4,6984)
 Backtracking                       3                     0          0       38.573577       38.573577                       *                                   
 Model                              3          1                                                        1.05654756E-04       *                    1_GWF-(6,10846)
 ----------------------------------------------------------------------------------------------------------------------------------------------------------------


 3 CALLS TO NUMERICAL SOLUTION IN TIME STEP 29 STRESS PERIOD 68
 9 TOTAL ITERATIONS

 OUTER ITERATION SUMMARY
 ----------------------------------------------------------------------------------------------------------------------------------------------------------------
                                OUTER      INNER  BACKTRACK  BACKTRACK        INCOMING        OUTGOING                    STEP   MAXIMUM CHANGE MODEL-(CELLID) OR
 OUTER ITERATION STEP       ITERATION  ITERATION       FLAG ITERATIONS        RESIDUAL        RESIDUAL  MAXIMUM CHANGE SUCCESS             MODEL-PACKAGE-(NUMBER)
 ----------------------------------------------------------------------------------------------------------------------------------------------------------------
 Backtracking                       1                     0          0       1421.4574       1421.4574                       *                                   
 Model                              1          6                                                            -1.2021944                             1_GWF-(4,6984)
 Backtracking                       2                     0          0       38.589783       38.589783                       *                                   
 Model                              2          1                                                       -1.97919165E-04       *                     1_GWF-(4,6984)
 ----------------------------------------------------------------------------------------------------------------------------------------------------------------


 2 CALLS TO NUMERICAL SOLUTION IN TIME STEP 30 STRESS PERIOD 68
 7 TOTAL ITERATIONS

 OUTER ITERATION SUMMARY
 ----------------------------------------------------------------------------------------------------------------------------------------------------------------
                                OUTER      INNER  BACKTRACK  BACKTRACK        INCOMING        OUTGOING                    STEP   MAXIMUM CHANGE MODEL-(CELLID) OR
 OUTER ITERATION STEP       ITERATION  ITERATION       FLAG ITERATIONS        RESIDUAL        RESIDUAL  MAXIMUM CHANGE SUCCESS             MODEL-PACKAGE-(NUMBER)
 ----------------------------------------------------------------------------------------------------------------------------------------------------------------
 Backtracking                       1                     0          0       1421.1408       1421.1408                       *                                   
 Model                              1          6                                                       -2.33883352E-02                            1_GWF-(5,10882)
 Backtracking                       2                     0          0       38.611862       38.611862                       *                                   
 Model                              2          1                                                       -1.34674549E-04       *                    1_GWF-(5,10882)
 ----------------------------------------------------------------------------------------------------------------------------------------------------------------


 2 CALLS TO NUMERICAL SOLUTION IN TIME STEP 31 STRESS PERIOD 68
 7 TOTAL ITERATIONS

 MEMORY MANAGER TOTAL STORAGE BY DATA TYPE, IN MEGABYTES
 -------------------------------
                    ALLOCATED   
 DATA TYPE           MEMORY     
 -------------------------------
 Character        0.52153300    
 Logical          4.40000000E-05
 Integer          19.465220     
 Real             684.17218     
 -------------------------------
 Total            704.15898     
 -------------------------------



 Run end date and time (yyyy/mm/dd hh:mm:ss): 2020/07/15 17:47:30
 Elapsed run time: 24 Minutes, 20.869 Seconds
 Normal termination of simulation.
